%nproc=8
%mem=18000mb
#P PBE1PBE DEF2TZVPP OPT FREQ SCF(tight) INT(ultrafine)

 7k_n_rd

-1 2
 C       -1.8094590000       -0.2247160000        3.6307600000
 C       -0.3995270000       -0.1900130000        3.8081480000
 C       -2.3679800000       -0.0696460000        2.3728320000
 C       -1.5726710000        0.1483110000        1.2364680000
 C       -0.1696230000        0.2115670000        1.3782540000
 C        0.4379760000        0.0200040000        2.6519090000
 H       -2.4511680000       -0.3870870000        4.5009840000
 H       -3.4558510000       -0.1181420000        2.2481500000
 N       -2.1810640000        0.2915900000        0.0000000000
 C       -1.5726710000        0.1483110000       -1.2364680000
 C       -0.1696230000        0.2115670000       -1.3782540000
 S        0.8251060000        0.6939760000       -0.0000000000
 C       -2.3679800000       -0.0696460000       -2.3728320000
 C       -1.8094590000       -0.2247160000       -3.6307600000
 C       -0.3995270000       -0.1900130000       -3.8081480000
 C        0.4379760000        0.0200040000       -2.6519090000
 H       -3.4558510000       -0.1181420000       -2.2481500000
 H       -2.4511680000       -0.3870870000       -4.5009840000
 H       -3.1857840000        0.1890450000        0.0000000000
 C        0.2061640000       -0.3511810000        5.0747390000
 C        1.8449620000        0.0340720000        2.8511690000
 C        1.5869830000       -0.3220610000        5.2348950000
 C        2.4035920000       -0.1331740000        4.1109240000
 C        1.8449620000        0.0340720000       -2.8511690000
 C        0.2061640000       -0.3511810000       -5.0747390000
 C        1.5869830000       -0.3220610000       -5.2348950000
 C        2.4035920000       -0.1331740000       -4.1109240000
 H       -0.4453160000       -0.5001650000       -5.9421460000
 H        2.0304810000       -0.4484730000       -6.2266890000
 H        2.4929050000        0.1687440000       -1.9816190000
 H        3.4922220000       -0.1207520000       -4.2218290000
 H        3.4922220000       -0.1207520000        4.2218290000
 H        2.4929050000        0.1687440000        1.9816190000
 H       -0.4453160000       -0.5001650000        5.9421460000
 H        2.0304810000       -0.4484730000        6.2266890000

