%nproc=8
%mem=18000mb
#P PBE1PBE DEF2TZVPP OPT FREQ SCF(tight) INT(ultrafine)

 7k_n_gn

 0 1
 C        1.7800030000       -0.3933740000        3.5465000000
 C        0.3746000000       -0.3160260000        3.7096790000
 C        2.3645160000       -0.1324360000        2.3329550000
 C        1.5800490000        0.2615020000        1.2200860000
 C        0.2037720000        0.3682730000        1.3539340000
 C       -0.4342420000        0.0572030000        2.5878740000
 H        2.3984940000       -0.6775120000        4.4014280000
 H        3.4485050000       -0.2161810000        2.2130440000
 N        2.1982380000        0.5159790000        0.0000000000
 C        1.5800490000        0.2615020000       -1.2200860000
 C        0.2037720000        0.3682730000       -1.3539340000
 S       -0.7383780000        1.0245100000       -0.0000000000
 C        2.3645160000       -0.1324360000       -2.3329550000
 C        1.7800030000       -0.3933740000       -3.5465000000
 C        0.3746000000       -0.3160260000       -3.7096790000
 C       -0.4342420000        0.0572030000       -2.5878740000
 H        3.4485050000       -0.2161810000       -2.2130440000
 H        2.3984940000       -0.6775120000       -4.4014280000
 H        3.2039500000        0.4105670000        0.0000000000
 C       -0.2510260000       -0.5974500000        4.9506020000
 C       -1.8426350000        0.1180920000        2.7628000000
 C       -1.6171980000       -0.5239040000        5.0890020000
 C       -2.4170910000       -0.1674170000        3.9797650000
 C       -1.8426350000        0.1180920000       -2.7628000000
 C       -0.2510260000       -0.5974500000       -4.9506020000
 C       -1.6171980000       -0.5239040000       -5.0890020000
 C       -2.4170910000       -0.1674170000       -3.9797650000
 H        0.3779370000       -0.8783730000       -5.7997880000
 H       -2.0861760000       -0.7440980000       -6.0507830000
 H       -2.4685650000        0.3835880000       -1.9080320000
 H       -3.5034620000       -0.1214910000       -4.0887340000
 H       -3.5034620000       -0.1214910000        4.0887340000
 H       -2.4685650000        0.3835880000        1.9080320000
 H        0.3779370000       -0.8783730000        5.7997880000
 H       -2.0861760000       -0.7440980000        6.0507830000

