%nproc=8
%mem=18000mb
#P PBE1PBE DEF2TZVPP OPT FREQ SCF(tight) INT(ultrafine)

 14-nq-6-ch2ococh3_n_gn

 0 1
 C        0.0449910000       -2.0564330000        0.0000410000
 C        0.8121860000       -0.8818490000        0.0000250000
 C       -1.3416990000       -1.9981670000        0.0000530000
 C       -1.9886950000       -0.7598600000        0.0000470000
 C       -1.2261700000        0.4182960000        0.0000290000
 C        0.1691570000        0.3541450000        0.0000190000
 H        0.7437670000        1.2816290000        0.0000010000
 H        0.5432820000       -3.0307660000        0.0000430000
 H       -1.9536730000       -2.9027090000        0.0000650000
 C       -3.4766430000       -0.7107120000        0.0000590000
 C       -4.1030810000        0.6324680000        0.0000380000
 C       -1.8934400000        1.7523300000        0.0000220000
 C       -3.3765080000        1.7616910000        0.0000210000
 H       -3.8371590000        2.7532150000        0.0000060000
 H       -5.1963540000        0.6403840000        0.0000380000
 O       -4.1570940000       -1.7171720000        0.0000640000
 O       -1.2655060000        2.7908020000        0.0000000000
 C        2.3132780000       -0.9925180000        0.0000280000
 O        2.8865740000        0.2900850000       -0.0000970000
 H        2.6311710000       -1.5678040000       -0.8888570000
 H        2.6311780000       -1.5676260000        0.8890270000
 C        4.2268720000        0.4913340000       -0.0001140000
 O        4.6379940000        1.6134150000       -0.0002130000
 C        5.1089460000       -0.7301230000       -0.0000070000
 H        4.9273010000       -1.3552840000       -0.8872170000
 H        4.9273790000       -1.3550440000        0.8873900000
 H        6.1521930000       -0.3966580000       -0.0000930000

