%nproc=8
%mem=18000mb
#P PBE1PBE DEF2TZVPP OPT FREQ SCF(tight) INT(ultrafine)

 11-bis-1-methylethyl-3l_2c_ox

 3 2
 N       -0.1742830000        3.5315270000       -0.0709640000
 C        0.0409030000        2.8695020000        1.0812170000
 C        0.1063440000        1.4840770000        1.1081020000
 C       -0.3209890000        2.8430670000       -1.2410850000
 C       -0.2572420000        1.4697840000       -1.2818720000
 C       -0.0409030000        0.7301750000       -0.0913460000
 C        0.0409030000       -0.7301750000       -0.0913460000
 C       -0.1063440000       -1.4840770000        1.1081020000
 C        0.2572420000       -1.4697840000       -1.2818720000
 C        0.3209890000       -2.8430670000       -1.2410850000
 C       -0.0409030000       -2.8695020000        1.0812170000
 N        0.1742830000       -3.5315270000       -0.0709640000
 H       -0.3035500000       -1.0139110000        2.0734390000
 H       -0.1537630000       -3.4667630000        1.9884530000
 H        0.1537630000        3.4667630000        1.9884530000
 H        0.3035500000        1.0139110000        2.0734390000
 H       -0.5069890000        3.4395910000       -2.1387320000
 H       -0.4151820000        0.9884840000       -2.2486110000
 H        0.5069890000       -3.4395910000       -2.1387320000
 H        0.4151820000       -0.9884840000       -2.2486110000
 C       -0.2336280000        5.0146780000       -0.1176850000
 C       -0.6240530000        5.6624770000        1.1815000000
 H        0.1664020000        5.6294940000        1.9524130000
 H       -1.5525010000        5.2387650000        1.6004120000
 C        0.2336280000       -5.0146780000       -0.1176850000
 C        0.6240530000       -5.6624770000        1.1815000000
 H       -0.1664020000       -5.6294940000        1.9524130000
 H        1.5525010000       -5.2387650000        1.6004120000
 C        1.1193100000        5.5453520000       -0.6961010000
 H       -0.9911200000        5.2320110000       -0.8984630000
 H        1.9304940000        5.3288110000        0.0161750000
 H        0.9978950000        6.6335630000       -0.8066890000
 H        1.3558540000        5.1202590000       -1.6811600000
 C       -1.1193100000       -5.5453520000       -0.6961010000
 H        0.9911200000       -5.2320110000       -0.8984630000
 H       -1.9304940000       -5.3288110000        0.0161750000
 H       -0.9978950000       -6.6335630000       -0.8066890000
 H       -1.3558540000       -5.1202590000       -1.6811600000
 H       -0.8034510000        6.7300660000        0.9831350000
 H        0.8034510000       -6.7300660000        0.9831350000

