%nproc=8
%mem=18000mb
#P PBE1PBE DEF2TZVPP OPT FREQ SCF(tight) INT(ultrafine)

 11-bis-1-methylethyl-3l_2c_rd

 1 2
 N        3.5525300000        0.1709460000       -0.0000400000
 C        2.8545130000       -1.0004350000       -0.0002630000
 C        1.4891580000       -1.0302890000       -0.0002430000
 C        2.8544030000        1.3404050000        0.0002160000
 C        1.4884350000        1.3720050000        0.0002270000
 C        0.7144620000        0.1709390000       -0.0000040000
 C       -0.7144620000        0.1709390000        0.0000020000
 C       -1.4891580000       -1.0302890000        0.0002480000
 C       -1.4884350000        1.3720050000       -0.0002350000
 C       -2.8544030000        1.3404050000       -0.0002240000
 C       -2.8545130000       -1.0004350000        0.0002670000
 N       -3.5525300000        0.1709460000        0.0000370000
 H       -1.0153920000       -2.0112040000        0.0004960000
 H       -3.4453240000       -1.9167860000        0.0004930000
 H        3.4453240000       -1.9167860000       -0.0004840000
 H        1.0153920000       -2.0112040000       -0.0004860000
 H        3.4509420000        2.2540430000        0.0004240000
 H        1.0158840000        2.3534820000        0.0004850000
 H       -3.4509420000        2.2540430000       -0.0004380000
 H       -1.0158840000        2.3534820000       -0.0004990000
 C        5.0336180000        0.1723200000        0.0000230000
 C        5.5791970000       -0.4608960000        1.2720980000
 H        5.3562840000       -1.5377920000        1.3230500000
 H        5.1675720000        0.0227210000        2.1697430000
 C       -5.0336180000        0.1723200000       -0.0000230000
 C       -5.5791990000       -0.4609060000       -1.2720930000
 H       -5.3562860000       -1.5378030000       -1.3230350000
 H       -5.1675740000        0.0227020000       -2.1697430000
 C        5.5793360000       -0.4608530000       -1.2720130000
 H        5.3060290000        1.2384810000        0.0000420000
 H        5.3565440000       -1.5377730000       -1.3229920000
 H        6.6729620000       -0.3517810000       -1.2967400000
 H        5.1677400000        0.0227320000       -2.1696880000
 C       -5.5793340000       -0.4608420000        1.2720180000
 H       -5.3060290000        1.2384810000       -0.0000520000
 H       -5.3565420000       -1.5377610000        1.3230060000
 H       -6.6729600000       -0.3517710000        1.2967460000
 H       -5.1677380000        0.0227510000        2.1696880000
 H        6.6728310000       -0.3519260000        1.2969150000
 H       -6.6728330000       -0.3519360000       -1.2969100000

