%nproc=8
%mem=18000mb
#P PBE1PBE DEF2TZVPP OPT FREQ SCF(tight) INT(ultrafine)

 phenothiazine_n_rd

-1 2
 C        0.9855380000       -0.1367170000        3.6679530000
 C       -0.4172750000       -0.3101480000        3.7820350000
 C        1.5552330000        0.0601910000        2.4138570000
 C        0.7824870000        0.0909420000        1.2409060000
 C       -0.6485970000       -0.0226130000        1.3658530000
 C       -1.2003850000       -0.2393760000        2.6307640000
 H        1.6248080000       -0.1595370000        4.5552340000
 H        2.6428250000        0.1816680000        2.3249180000
 H       -0.8810730000       -0.5060310000        4.7526220000
 H       -2.2900470000       -0.3367720000        2.7041940000
 N        1.3756650000        0.2109140000        0.0000000000
 C        0.7824870000        0.0909420000       -1.2409060000
 C       -0.6485970000       -0.0226130000       -1.3658530000
 S       -1.6807010000        0.4119790000       -0.0000000000
 C        1.5552330000        0.0601910000       -2.4138570000
 C        0.9855380000       -0.1367170000       -3.6679530000
 C       -0.4172750000       -0.3101480000       -3.7820350000
 C       -1.2003850000       -0.2393760000       -2.6307640000
 H        2.6428250000        0.1816680000       -2.3249180000
 H        1.6248080000       -0.1595370000       -4.5552340000
 H       -2.2900470000       -0.3367720000       -2.7041940000
 H       -0.8810730000       -0.5060310000       -4.7526220000
 H        2.3845170000        0.2659440000        0.0000000000

