%nproc=8
%mem=18000mb
#P PBE1PBE DEF2TZVPP OPT FREQ SCF(tight) INT(ultrafine)

 phenothiazine_n_gn

 0 1
 C       -0.9987550000       -0.3155540000        3.5808550000
 C        0.3791450000       -0.4751530000        3.7013050000
 C       -1.5617040000        0.0126140000        2.3494320000
 C       -0.7547020000        0.2221320000        1.2254350000
 C        0.6383580000        0.0766300000        1.3559070000
 C        1.1906380000       -0.2905610000        2.5816780000
 H       -1.6487720000       -0.4591300000        4.4470030000
 H       -2.6463860000        0.1164170000        2.2524790000
 H        0.8261660000       -0.7439180000        4.6605060000
 H        2.2737340000       -0.4155990000        2.6569150000
 N       -1.3180880000        0.5610470000        0.0000000000
 C       -0.7547020000        0.2221320000       -1.2254350000
 C        0.6383580000        0.0766300000       -1.3559070000
 S        1.7017630000        0.4800030000       -0.0000000000
 C       -1.5617040000        0.0126140000       -2.3494320000
 C       -0.9987550000       -0.3155540000       -3.5808550000
 C        0.3791450000       -0.4751530000       -3.7013050000
 C        1.1906380000       -0.2905610000       -2.5816780000
 H       -2.6463860000        0.1164170000       -2.2524790000
 H       -1.6487720000       -0.4591300000       -4.4470030000
 H        2.2737340000       -0.4155990000       -2.6569150000
 H        0.8261660000       -0.7439180000       -4.6605060000
 H       -2.3268330000        0.6357790000        0.0000000000

