%nproc=8
%mem=18000mb
#P PBE1PBE DEF2TZVPP OPT FREQ SCF(tight) INT(ultrafine)

 phenothiazine_n_ox

 1 2
 C        0.9888110000       -3.6386020000        0.0000000000
 C       -0.4120360000       -3.7672360000        0.0000000000
 C        1.5773090000       -2.3903090000        0.0000000000
 C        0.7785020000       -1.2298190000        0.0000000000
 C       -0.6333280000       -1.3624980000        0.0000000000
 C       -1.2144570000       -2.6405340000        0.0000000000
 H        1.6179420000       -4.5308560000        0.0000000000
 H        2.6657300000       -2.2906930000        0.0000000000
 H       -0.8704130000       -4.7579100000        0.0000000000
 H       -2.3027920000       -2.7369330000        0.0000000000
 N        1.3786930000        0.0000000000        0.0000000000
 C        0.7785020000        1.2298190000        0.0000000000
 C       -0.6333280000        1.3624980000        0.0000000000
 S       -1.7052910000       -0.0000000000        0.0000000000
 C        1.5773090000        2.3903090000        0.0000000000
 C        0.9888110000        3.6386020000        0.0000000000
 C       -0.4120360000        3.7672360000        0.0000000000
 C       -1.2144570000        2.6405340000        0.0000000000
 H        2.6657300000        2.2906930000        0.0000000000
 H        1.6179420000        4.5308560000        0.0000000000
 H       -2.3027910000        2.7369330000        0.0000000000
 H       -0.8704130000        4.7579100000        0.0000000000
 H        2.3952380000        0.0000000000        0.0000000000

