%nproc=8
%mem=18000mb
#P PBE1PBE DEF2TZVPP OPT FREQ SCF(tight) INT(ultrafine)

 i47di-12-ch23-3-phen-56-met_n_ox

 1 2
 C       -3.3013790000       -0.6490250000       -0.0439730000
 C       -2.4848250000       -1.7419690000       -0.0739650000
 C       -2.7376980000        0.7240240000       -0.0013090000
 C       -1.2673740000        0.8147560000        0.0077650000
 C       -0.4151110000       -0.2748730000        0.0235450000
 C       -0.9909450000       -1.6432420000       -0.0507470000
 O       -3.4151580000        1.7318600000        0.0225050000
 O       -0.2949650000       -2.6375330000       -0.0921990000
 C       -0.4677860000        1.9779270000       -0.0121680000
 N        0.8276360000        1.5986620000       -0.0488520000
 C        0.9489050000        0.2227730000       -0.0129430000
 C       -3.0405960000       -3.1269380000       -0.1283470000
 H       -3.6899490000       -3.2532410000       -1.0092400000
 H       -3.6662510000       -3.3316720000        0.7555450000
 H       -2.2380770000       -3.8720230000       -0.1713790000
 C       -4.7886810000       -0.7584940000       -0.0583680000
 H       -5.1485340000       -1.3601740000        0.7914180000
 H       -5.1365890000       -1.2652350000       -0.9731190000
 H       -5.2502590000        0.2351870000       -0.0102210000
 C        2.2121920000       -0.4537270000       -0.0157460000
 C        2.3552100000       -1.7221380000        0.6069330000
 C        3.3537820000        0.1361440000       -0.6246670000
 C        4.5713440000       -0.5164810000       -0.6141110000
 C        4.6963280000       -1.7592710000        0.0238600000
 C        3.5876580000       -2.3526030000        0.6339440000
 H        1.4940420000       -2.1946760000        1.0732460000
 H        5.6637790000       -2.2670810000        0.0378860000
 H        3.6882410000       -3.3186520000        1.1323950000
 H        3.2673110000        1.0806760000       -1.1605070000
 H        5.4337810000       -0.0683220000       -1.1115480000
 C       -0.6048510000        3.4459370000        0.0203650000
 C        0.8116550000        3.8901010000        0.4335930000
 H       -1.4130260000        3.7727150000        0.6896900000
 H       -0.8879890000        3.8006710000       -0.9890050000
 C        1.7417180000        2.7477300000       -0.0056620000
 H        0.8569150000        4.0064160000        1.5265420000
 H        1.1066690000        4.8485850000       -0.0117030000
 H        2.5693440000        2.5583310000        0.6911760000
 H        2.1608570000        2.9194470000       -1.0096550000

