%nproc=8
%mem=18000mb
#P PBE1PBE DEF2TZVPP OPT FREQ SCF(tight) INT(ultrafine)

 i47di-12-ch23-3-phen-56-met_n_rd

-1 2
 C       -3.2691200000       -0.6567040000       -0.0574280000
 C       -2.4124820000       -1.7597990000       -0.0445220000
 C       -2.7712110000        0.7007710000       -0.0524180000
 C       -1.3191470000        0.7964730000       -0.0469570000
 C       -0.4158600000       -0.3181470000       -0.0270480000
 C       -0.9580320000       -1.6764220000       -0.0219440000
 O       -3.4960930000        1.7232540000       -0.0524020000
 O       -0.2439450000       -2.7116960000        0.0155810000
 C       -0.5472250000        1.9415700000       -0.0491020000
 N        0.7631140000        1.5796710000       -0.0518240000
 C        0.9083020000        0.1982710000       -0.0438320000
 C       -2.9804090000       -3.1495680000       -0.0401630000
 H       -3.6330780000       -3.3267320000        0.8336300000
 H       -2.1509330000       -3.8694840000       -0.0170180000
 H       -3.5994270000       -3.3451280000       -0.9343260000
 C       -4.7596820000       -0.8215720000       -0.0699460000
 H       -5.1114720000       -1.3839240000       -0.9537320000
 H       -5.2197600000        0.1771390000       -0.0800850000
 H       -5.1281170000       -1.3718550000        0.8148250000
 C        2.2264430000       -0.4260910000       -0.0508030000
 C        2.4325970000       -1.7133840000        0.4943600000
 C        3.3559430000        0.2248070000       -0.5975690000
 C        4.6239350000       -0.3503430000       -0.5554470000
 C        4.8126500000       -1.6069610000        0.0167310000
 C        3.6993300000       -2.2830850000        0.5249110000
 H        1.5548830000       -2.2709160000        0.8303690000
 H        5.8068510000       -2.0612920000        0.0494630000
 H        3.8188370000       -3.2827810000        0.9536490000
 H        3.2398450000        1.1845180000       -1.1022530000
 H        5.4708790000        0.1874420000       -0.9929150000
 C       -0.6891190000        3.4216670000        0.0048780000
 C        0.6950310000        3.8342280000        0.5374110000
 H       -1.5308590000        3.7314240000        0.6388130000
 H       -0.8821490000        3.8419670000       -1.0001650000
 C        1.6472080000        2.7220100000        0.0653700000
 H        0.6732540000        3.8458270000        1.6389330000
 H        1.0237450000        4.8294740000        0.2006100000
 H        2.4688350000        2.5233920000        0.7694370000
 H        2.1022590000        2.9744370000       -0.9107860000

