%nproc=8
%mem=18000mb
#P PBE1PBE DEF2TZVPP OPT FREQ SCF(tight) INT(ultrafine)

 11-dimethyl-22-diphenyl-3p_2c_rd

 1 2
 N       -3.5493420000       -1.6801670000       -0.1400710000
 C       -2.8468420000       -2.8518830000       -0.1147050000
 C       -1.4859420000       -2.8938840000       -0.0562940000
 C       -2.8620720000       -0.4878610000       -0.0746970000
 C       -1.4866860000       -0.4956080000       -0.0320050000
 C       -0.7147300000       -1.6931830000       -0.0246470000
 H       -1.0067570000        0.4801720000        0.0288570000
 H       -3.4451500000       -3.7630150000       -0.1556840000
 H       -1.0180820000       -3.8773780000       -0.0438870000
 C        0.7147270000       -1.6931830000        0.0246490000
 C        1.4859390000       -2.8938830000        0.0562970000
 C        2.8468390000       -2.8518830000        0.1147070000
 C        1.4866830000       -0.4956070000        0.0320060000
 C        2.8620680000       -0.4878600000        0.0746980000
 N        3.5493390000       -1.6801660000        0.1400720000
 H        1.0067540000        0.4801720000       -0.0288580000
 H        1.0180790000       -3.8773780000        0.0438910000
 H        3.4451480000       -3.7630140000        0.1556860000
 C        4.9999320000       -1.7359280000        0.2743980000
 H        5.3541140000       -0.8835340000        0.8654650000
 H        5.4960900000       -1.7152820000       -0.7072750000
 H        5.2721730000       -2.6648270000        0.7903620000
 C       -4.9999350000       -1.7359320000       -0.2744010000
 H       -5.2721720000       -2.6648320000       -0.7903650000
 H       -5.3541170000       -0.8835400000       -0.8654710000
 H       -5.4960960000       -1.7152870000        0.7072700000
 C        3.6136820000        0.7890630000        0.0427490000
 C        3.4073270000        1.7408670000        1.0505300000
 C        4.4900810000        1.0857660000       -1.0118600000
 C        5.1514710000        2.3096710000       -1.0502780000
 C        4.9489110000        3.2481950000       -0.0378850000
 C        4.0761330000        2.9627210000        1.0104630000
 H        2.7297150000        1.5140400000        1.8774720000
 H        4.6368640000        0.3663320000       -1.8214420000
 H        5.8239730000        2.5359460000       -1.8807620000
 H        5.4718290000        4.2067600000       -0.0690560000
 H        3.9158600000        3.6942530000        1.8056440000
 C       -3.6136840000        0.7890640000       -0.0427490000
 C       -3.4073300000        1.7408640000       -1.0505350000
 C       -4.4900740000        1.0857750000        1.0118650000
 C       -4.0761330000        2.9627200000       -1.0104690000
 C       -4.9489030000        3.2482010000        0.0378820000
 C       -5.1514590000        2.3096830000        1.0502820000
 H       -4.6368520000        0.3663470000        1.8214520000
 H       -2.7297240000        1.5140310000       -1.8774790000
 H       -3.9158630000        3.6942480000       -1.8056540000
 H       -5.4718180000        4.2067680000        0.0690530000
 H       -5.8239550000        2.5359640000        1.8807700000

