%nproc=8
%mem=18000mb
#P PBE1PBE DEF2TZVPP OPT FREQ SCF(tight) INT(ultrafine)

 11-dimethyl-22-diphenyl-3p_2c_gn

 2 1
 N        3.4414200000       -1.5697980000        0.7579500000
 C        2.6898090000       -2.6726500000        0.9791250000
 C        1.3460620000       -2.7131910000        0.6868550000
 C        2.8938890000       -0.4463890000        0.2126280000
 C        1.5191300000       -0.4454130000       -0.0609760000
 C        0.7237020000       -1.5674980000        0.1624120000
 H        1.1078910000        0.4558500000       -0.5179200000
 H        3.2075700000       -3.5275800000        1.4177410000
 H        0.7921610000       -3.6272400000        0.9059770000
 C       -0.7237220000       -1.5675060000       -0.1623630000
 C       -1.3460780000       -2.7132200000       -0.6867660000
 C       -2.6898230000       -2.6726910000       -0.9790420000
 C       -1.5191540000       -0.4454150000        0.0609840000
 C       -2.8939140000       -0.4464060000       -0.2126120000
 N       -3.4414410000       -1.5698350000       -0.7579040000
 H       -1.1079160000        0.4558640000        0.5178960000
 H       -0.7921730000       -3.6272730000       -0.9058590000
 H       -3.2075780000       -3.5276330000       -1.4176400000
 C       -4.8545910000       -1.6193240000       -1.1709090000
 H       -5.1839100000       -0.6156050000       -1.4602750000
 H       -5.4801210000       -1.9851120000       -0.3458320000
 H       -4.9431750000       -2.2997200000       -2.0255490000
 C        4.8545840000       -1.6192630000        1.1709120000
 H        4.9432020000       -2.2996270000        2.0255740000
 H        5.1839030000       -0.6155290000        1.4602290000
 H        5.4800900000       -1.9850740000        0.3458270000
 C       -3.7163460000        0.7355570000        0.0896210000
 C       -3.3224650000        1.9863980000       -0.4153830000
 C       -4.8422430000        0.6466650000        0.9268720000
 C       -5.5632290000        1.7928160000        1.2428110000
 C       -5.1811340000        3.0286950000        0.7183380000
 C       -4.0635620000        3.1238010000       -0.1115360000
 H       -2.4554500000        2.0642910000       -1.0767480000
 H       -5.1370610000       -0.3092740000        1.3661530000
 H       -6.4268210000        1.7225470000        1.9075890000
 H       -5.7572430000        3.9244400000        0.9615000000
 H       -3.7695400000        4.0900530000       -0.5268400000
 C        3.7163330000        0.7355530000       -0.0896440000
 C        3.3224440000        1.9864260000        0.4152750000
 C        4.8422770000        0.6465960000       -0.9268240000
 C        4.0635670000        3.1238040000        0.1113950000
 C        5.1811790000        3.0286360000       -0.7184190000
 C        5.5632910000        1.7927210000       -1.2427940000
 H        5.1371150000       -0.3093770000       -1.3660190000
 H        2.4553990000        2.0643670000        1.0765960000
 H        3.7695350000        4.0900840000        0.5266290000
 H        5.7573100000        3.9243610000       -0.9616040000
 H        6.4269210000        1.7224030000       -1.9075180000

