%nproc=8
%mem=18000mb
#P PBE1PBE DEF2TZVPP OPT FREQ SCF(tight) INT(ultrafine)

 3b_2c_ox

 3 2
 C        1.9248220000       -2.9606050000        0.0000000000
 C        2.7212660000       -1.8139970000        0.0000000000
 C        2.0974370000       -0.5689880000        0.0000000000
 C        0.6731760000       -0.4509100000        0.0000000000
 C        0.5201500000       -2.8324480000        0.0000000000
 N       -0.0811050000       -1.6206180000        0.0000000000
 C        0.0000000000        0.8098140000        0.0000000000
 N       -1.3904500000        0.8344730000        0.0000000000
 C       -1.4809430000       -1.5498160000        0.0000000000
 C       -2.1116290000       -0.3675560000        0.0000000000
 C        0.6948420000        2.0591580000        0.0000000000
 C        0.0077230000        3.2711280000        0.0000000000
 C       -2.0628000000        2.0092010000        0.0000000000
 C       -1.3875930000        3.2478080000        0.0000000000
 H       -2.0316400000       -2.4953910000        0.0000000000
 H       -3.2036630000       -0.2981810000        0.0000000000
 H        2.3586980000       -3.9692700000        0.0000000000
 H       -0.1370600000       -3.7109360000        0.0000000000
 H        3.8153930000       -1.8865830000        0.0000000000
 H        2.7196730000        0.3283760000        0.0000000000
 H       -3.1584610000        1.9519440000        0.0000000000
 H       -1.9842050000        4.1696120000        0.0000000000
 H        1.7867340000        2.0763510000        0.0000000000
 H        0.5567080000        4.2203600000        0.0000000000

