%nproc=8
%mem=18000mb
#P PBE1PBE DEF2TZVPP OPT FREQ SCF(tight) INT(ultrafine)

 3b_2c_rd

 1 2
 C        0.2635010000       -3.5261960000        0.0000000000
 C        1.5242300000       -2.8626470000        0.0000000000
 C        1.5814540000       -1.4974840000        0.0000000000
 C        0.3976020000       -0.7039480000        0.0000000000
 C       -0.8680090000       -2.7710930000        0.0000000000
 N       -0.8187230000       -1.4020290000        0.0000000000
 C        0.3976020000        0.7039480000        0.0000000000
 N       -0.8187230000        1.4020290000        0.0000000000
 C       -2.0068710000       -0.6679750000        0.0000000000
 C       -2.0068710000        0.6679750000        0.0000000000
 C        1.5814540000        1.4974840000        0.0000000000
 C        1.5242300000        2.8626470000        0.0000000000
 C       -0.8680090000        2.7710930000        0.0000000000
 C        0.2635010000        3.5261960000        0.0000000000
 H       -2.9348460000       -1.2382500000        0.0000000000
 H       -2.9348470000        1.2382500000        0.0000000000
 H        0.1880250000       -4.6134290000        0.0000000000
 H       -1.8705280000       -3.2015850000        0.0000000000
 H        2.4475260000       -3.4449890000        0.0000000000
 H        2.5494390000       -0.9998090000        0.0000000000
 H       -1.8705280000        3.2015850000        0.0000000000
 H        0.1880250000        4.6134300000        0.0000000000
 H        2.5494390000        0.9998090000        0.0000000000
 H        2.4475250000        3.4449890000        0.0000000000

