%nproc=8
%mem=18000mb
#P PBE1PBE DEF2TZVPP OPT FREQ SCF(tight) INT(ultrafine)

 4-ethyl-3c_2c_ox

 3 2
 C       -4.1643660000       -0.2938680000       -0.2013330000
 C       -3.7862150000        1.0238130000       -0.4269520000
 C       -2.4333240000        1.3656340000       -0.3192190000
 C       -3.1735390000       -1.2455380000        0.1203420000
 N       -1.8840100000       -0.9070500000        0.2009610000
 C       -1.4657780000        0.3870830000       -0.0046170000
 C       -0.0478780000        0.7021000000        0.0858560000
 N        0.8916700000       -0.2942620000        0.0023400000
 C       -0.8691100000       -1.8995020000        0.6033130000
 C        0.4015970000       -1.6822290000       -0.1786060000
 H       -1.2552350000       -2.9083980000        0.4005860000
 H       -0.7126690000       -1.8077510000        1.6921420000
 H        0.2696950000       -1.8670540000       -1.2592300000
 H        1.1551800000       -2.3841360000        0.1970620000
 C        0.3751700000        2.0521760000        0.2556540000
 C        1.7274100000        2.3650140000        0.3371480000
 C        2.6491970000        1.3357030000        0.2082850000
 C        2.2320980000       -0.0244560000        0.0062160000
 H       -5.2099650000       -0.6172940000       -0.2632330000
 H       -3.4289280000       -2.2922740000        0.3226700000
 H        3.7242430000        1.5362550000        0.2515690000
 H       -2.1354480000        2.3971750000       -0.5181450000
 H       -0.3664460000        2.8464950000        0.3630020000
 H       -4.5287370000        1.7873780000       -0.6840230000
 H        2.0543970000        3.3987400000        0.4951510000
 C        3.2291050000       -1.0937480000       -0.1946320000
 C        4.6811300000       -0.7028600000       -0.4088830000
 H        2.8808200000       -1.7620110000       -1.0115900000
 H        3.1590720000       -1.7632130000        0.7023630000
 H        4.8143450000       -0.0669570000       -1.2981780000
 H        5.2647840000       -1.6192970000       -0.5743550000
 H        5.1282870000       -0.2044040000        0.4656710000

