%nproc=8
%mem=18000mb
#P PBE1PBE DEF2TZVPP OPT FREQ SCF(tight) INT(ultrafine)

 4-ethyl-3c_2c_gn

 2 1
 C       -4.1581200000       -0.3303330000       -0.1510490000
 C       -3.7824420000        0.9767490000       -0.4541260000
 C       -2.4363010000        1.3375510000       -0.3947020000
 C       -3.1735410000       -1.2425010000        0.1867660000
 N       -1.8782530000       -0.8749600000        0.2387690000
 C       -1.4770180000        0.3979300000       -0.0266100000
 C       -0.0413260000        0.7355010000        0.0916680000
 N        0.8942160000       -0.2570960000       -0.0421950000
 C       -0.8428760000       -1.8474260000        0.6132470000
 C        0.3886990000       -1.6281970000       -0.2288700000
 H       -1.2318160000       -2.8603060000        0.4478610000
 H       -0.6265090000       -1.7332510000        1.6885840000
 H        0.1879140000       -1.7926770000       -1.3009190000
 H        1.1578280000       -2.3421230000        0.0826590000
 C        0.3693030000        2.0395190000        0.3133890000
 C        1.7338620000        2.3307800000        0.3595510000
 C        2.6541480000        1.3130860000        0.1717930000
 C        2.2345790000       -0.0055300000       -0.0328430000
 H       -5.2008360000       -0.6536660000       -0.1868520000
 H       -3.3943060000       -2.2866180000        0.4214760000
 H        3.7236730000        1.5229100000        0.1880860000
 H       -2.1336020000        2.3510650000       -0.6595370000
 H       -0.3660030000        2.8288570000        0.4701610000
 H       -4.5328720000        1.7167120000       -0.7452810000
 H        2.0698040000        3.3553250000        0.5395690000
 C        3.2048810000       -1.1295550000       -0.2466430000
 C        4.6710650000       -0.7320390000       -0.3179050000
 H        2.9210060000       -1.6585110000       -1.1740790000
 H        3.0685930000       -1.8628670000        0.5710640000
 H        4.8718250000       -0.0370460000       -1.1462790000
 H        5.2761520000       -1.6310210000       -0.4960940000
 H        5.0279260000       -0.2856050000        0.6215670000

