%nproc=8
%mem=18000mb
#P PBE1PBE DEF2TZVPP OPT FREQ SCF(tight) INT(ultrafine)

 10-n-methyl-3-piperidinyl-7b_n_rd

-1 2
 C       -1.9074770000       -3.3895200000       -1.3385240000
 C       -2.6843890000       -3.5161360000       -0.1660280000
 C       -1.2428660000       -2.2047480000       -1.6201070000
 C       -1.2905430000       -1.0852350000       -0.7536300000
 C       -2.0846990000       -1.2299840000        0.4332800000
 C       -2.7571430000       -2.4190630000        0.6970400000
 H       -1.8413830000       -4.2182360000       -2.0501510000
 H       -0.6852380000       -2.1347740000       -2.5578990000
 H       -3.2379860000       -4.4333000000        0.0497550000
 H       -3.3481520000       -2.4767370000        1.6174500000
 N       -0.5781590000        0.0965270000       -1.0267320000
 C       -0.9797030000        1.3593200000       -0.5725920000
 C       -1.9260770000        1.4504970000        0.5101360000
 S       -2.0661900000        0.0672490000        1.6178070000
 C       -0.5166690000        2.5552860000       -1.1385330000
 C       -1.0061720000        3.8011990000       -0.7363350000
 C       -1.9953950000        3.8768040000        0.2762120000
 C       -2.4230100000        2.7073590000        0.8892310000
 H        0.2283500000        2.5254790000       -1.9390550000
 H       -0.6241700000        4.7082920000       -1.2126610000
 H       -3.1519110000        2.7477930000        1.7075460000
 H       -2.4231090000        4.8406220000        0.5681810000
 C        0.7053280000       -0.0024890000       -1.6875790000
 C        1.8949850000        0.3028080000       -0.7701400000
 H        0.7499990000        0.6587020000       -2.5732030000
 H        0.8204150000       -1.0249010000       -2.0696500000
 C        3.2229220000        0.1288750000       -1.5016890000
 C        4.3949620000        0.3532710000       -0.5537180000
 H        3.2834650000        0.8141160000       -2.3649730000
 H        3.2783750000       -0.8982910000       -1.9116370000
 C        4.2640520000       -0.5170700000        0.6885360000
 H        4.4147330000        1.4104580000       -0.2387060000
 H        5.3549580000        0.1423740000       -1.0551410000
 N        2.9995150000       -0.2992910000        1.3463570000
 H        5.0773920000       -0.2869800000        1.3989070000
 H        4.3954550000       -1.5913320000        0.3979700000
 C        1.8685480000       -0.5702200000        0.4790430000
 H        1.8194140000        1.3501080000       -0.4309820000
 H        0.9362960000       -0.3809830000        1.0349150000
 H        1.8437660000       -1.6459660000        0.1740410000
 C        2.8989910000       -0.9800030000        2.6068500000
 H        3.7123290000       -0.6615700000        3.2805570000
 H        2.9531170000       -2.0912510000        2.5157090000
 H        1.9395740000       -0.7359600000        3.0880390000

