%nproc=8
%mem=18000mb
#P PBE1PBE DEF2TZVPP OPT FREQ SCF(tight) INT(ultrafine)

 3-methoxy-7a_n_ox

 1 2
 C        2.1788130000       -3.9733290000        0.0000000000
 C        3.2971370000       -3.1229310000        0.0000000000
 C        0.9030220000       -3.4454300000        0.0000000000
 C        0.7125250000       -2.0500000000        0.0000000000
 C        1.8397320000       -1.1951770000        0.0000000000
 C        3.1283620000       -1.7482490000        0.0000000000
 H        2.3153750000       -5.0564640000        0.0000000000
 H        0.0305480000       -4.1042600000        0.0000000000
 H        4.3045820000       -3.5434450000        0.0000000000
 H        3.9973330000       -1.0856920000        0.0000000000
 N       -0.5633850000       -1.5464430000        0.0000000000
 C       -0.9491420000       -0.2372760000        0.0000000000
 C       -0.0000000000        0.8238420000        0.0000000000
 S        1.7158000000        0.5397840000        0.0000000000
 C       -2.3207450000        0.0849000000        0.0000000000
 C       -2.7469930000        1.3948230000        0.0000000000
 C       -1.7996990000        2.4492660000        0.0000000000
 C       -0.4318230000        2.1436150000        0.0000000000
 H       -3.0577450000       -0.7225900000        0.0000000000
 H       -3.8161690000        1.6065850000        0.0000000000
 H        0.2815130000        2.9703630000        0.0000000000
 H       -1.3121210000       -2.2337430000        0.0000000000
 O       -2.1129290000        3.7322960000        0.0000000000
 C       -3.4655230000        4.1512760000        0.0000000000
 H       -3.4428020000        5.2465910000        0.0000000000
 H       -3.9900880000        3.8004330000        0.9028960000
 H       -3.9900880000        3.8004330000       -0.9028960000

