%nproc=8
%mem=18000mb
#P PBE1PBE DEF2TZVPP OPT FREQ SCF(tight) INT(ultrafine)

 14-nq-2-ch2och3_n_rd

-1 2
 C        3.5549700000       -1.2529000000        0.0000480000
 C        3.8754550000        0.1197520000        0.0000260000
 C        2.2299150000       -1.6521750000        0.0000260000
 C        1.1869670000       -0.7053300000       -0.0000170000
 C        2.8623150000        1.0633350000       -0.0000190000
 H        4.3547580000       -2.0006240000        0.0000840000
 H        4.9234780000        0.4364060000        0.0000400000
 H        1.9388080000       -2.7060890000        0.0000490000
 C        1.5095550000        0.6766730000       -0.0000430000
 H        3.0637690000        2.1380670000       -0.0000490000
 C       -0.2067990000       -1.1659850000       -0.0000190000
 C       -1.2097620000       -0.1266150000       -0.0000160000
 C       -0.8919610000        1.2159810000       -0.0000380000
 C        0.4592430000        1.7128130000       -0.0001270000
 O       -0.5142450000       -2.3824320000       -0.0000200000
 O        0.7410040000        2.9306150000        0.0000250000
 C       -2.6209860000       -0.6263190000        0.0000360000
 O       -3.5548440000        0.4212760000       -0.0000110000
 H       -2.7744080000       -1.2879390000        0.8803180000
 H       -2.7744350000       -1.2880470000       -0.8801600000
 C       -4.8630080000       -0.0231880000        0.0000620000
 H       -5.5284480000        0.8544170000        0.0000170000
 H       -5.1020780000       -0.6401980000        0.8932830000
 H       -5.1021320000       -0.6403290000       -0.8930550000
 H       -1.6900530000        1.9624130000       -0.0000030000

