%nproc=8
%mem=18000mb
#P PBE1PBE DEF2TZVPP OPT FREQ SCF(tight) INT(ultrafine)

 14-nq-2-ch2och3_n_ox

 1 2
 C        3.5654470000       -1.2366360000        0.0747380000
 C        3.8772040000        0.1248790000        0.0705930000
 C        2.2365830000       -1.6521790000        0.0404580000
 C        1.2196360000       -0.6924320000        0.0014680000
 C        2.8640150000        1.0837690000        0.0288560000
 H        4.3645210000       -1.9810190000        0.0965740000
 H        4.9215520000        0.4443090000        0.1009430000
 H        1.9735780000       -2.7121670000        0.0319680000
 C        1.5307680000        0.6791240000        0.0073470000
 H        3.0880200000        2.1530460000        0.0214580000
 C       -0.1838090000       -1.1286430000       -0.0734160000
 C       -1.2482670000       -0.0774590000        0.0200800000
 C       -0.9572930000        1.2294840000       -0.0338160000
 C        0.4622600000        1.7125020000       -0.0261280000
 O       -0.5370560000       -2.2855290000       -0.1917200000
 O        0.6829050000        2.8969940000       -0.0622810000
 C       -2.6088920000       -0.7070260000        0.1595920000
 O       -3.5849630000        0.0389960000       -0.4163470000
 H       -2.8253810000       -0.9859130000        1.2094590000
 H       -2.4588980000       -1.6974920000       -0.3748670000
 C       -4.8244120000        0.1605990000        0.2504010000
 H       -5.4884130000        0.7309690000       -0.4080150000
 H       -4.6921620000        0.6941150000        1.2084750000
 H       -5.2518270000       -0.8369260000        0.4522550000
 H       -1.7175260000        2.0115050000       -0.0964930000

