%nproc=8
%mem=18000mb
#P PBE1PBE DEF2TZVPP OPT FREQ SCF(tight) INT(ultrafine)

 14-nq-2-ch2och3_n_gn

 0 1
 C       -3.5967450000       -1.2020740000       -0.0000090000
 C       -3.8899460000        0.1642960000       -0.0000330000
 C       -2.2733050000       -1.6330910000        0.0000140000
 C       -1.2361960000       -0.6974920000        0.0000270000
 C       -2.8601230000        1.1012740000       -0.0000450000
 H       -4.4080480000       -1.9340030000        0.0000040000
 H       -4.9303700000        0.4983610000       -0.0000600000
 H       -2.0140940000       -2.6940450000        0.0000710000
 C       -1.5311530000        0.6756340000       -0.0000390000
 H       -3.0572560000        2.1755400000       -0.0001060000
 C        0.1738070000       -1.1707900000        0.0002150000
 C        1.2465530000       -0.1379390000        0.0000560000
 C        0.9520410000        1.1763420000        0.0000190000
 C       -0.4333740000        1.6857360000       -0.0002360000
 O        0.4584250000       -2.3536970000       -0.0003380000
 O       -0.6640490000        2.8791100000        0.0003400000
 C        2.6469870000       -0.6567450000        0.0000680000
 O        3.5557010000        0.3924600000       -0.0000120000
 H        2.7780170000       -1.3199880000       -0.8815010000
 H        2.7780260000       -1.3198680000        0.8817240000
 C        4.8879140000       -0.0217620000       -0.0000360000
 H        5.5184710000        0.8776640000       -0.0000920000
 H        5.1335210000       -0.6250540000       -0.8958590000
 H        5.1335750000       -0.6249810000        0.8958210000
 H        1.7487720000        1.9230480000        0.0000850000

