%nproc=8
%mem=18000mb
#P PBE1PBE DEF2TZVPP OPT FREQ SCF(tight) INT(ultrafine)

 3-chloro-7a_n_rd

-1 2
 C       -4.4481160000        0.6934750000       -0.3464670000
 C       -4.4301390000       -0.7165960000       -0.4047650000
 C       -3.2669960000        1.3929340000       -0.1283470000
 C       -2.0332460000        0.7365220000        0.0421000000
 C       -2.0276870000       -0.6986560000        0.0344490000
 C       -3.2196330000       -1.3823500000       -0.2082220000
 H       -5.3839430000        1.2439140000       -0.4793680000
 H       -3.2831810000        2.4893380000       -0.0935570000
 H       -5.3437800000       -1.2817390000       -0.6062200000
 H       -3.1871450000       -2.4773340000       -0.2239700000
 N       -0.8728150000        1.4586520000        0.2238140000
 C        0.4303210000        0.9912730000        0.1863030000
 C        0.6807850000       -0.4258240000        0.0723590000
 S       -0.5883390000       -1.5675850000        0.5544020000
 C        1.5142950000        1.8673530000        0.2206280000
 C        2.8372000000        1.4271340000        0.1005710000
 C        3.0572660000        0.0375390000       -0.0703500000
 C        2.0068660000       -0.8642010000       -0.0835500000
 H        1.3188220000        2.9425200000        0.3262600000
 H        3.6746330000        2.1241070000        0.1410190000
 H        2.2094250000       -1.9331930000       -0.2007190000
 H       -0.9797680000        2.4631030000        0.2400250000
Cl        4.6995630000       -0.5324440000       -0.3546380000

