%nproc=8
%mem=18000mb
#P PBE1PBE DEF2TZVPP OPT FREQ SCF(tight) INT(ultrafine)

 3-chloro-7a_n_gn

 0 1
 C        4.3494690000        0.6946910000       -0.5232580000
 C        4.3215060000       -0.6941990000       -0.6170500000
 C        3.2053120000        1.3958750000       -0.1490690000
 C        2.0238060000        0.7186150000        0.1723240000
 C        2.0055910000       -0.6852120000        0.0931410000
 C        3.1422570000       -1.3775460000       -0.3199720000
 H        5.2641980000        1.2449470000       -0.7550530000
 H        3.2237910000        2.4883770000       -0.0973730000
 H        5.2111760000       -1.2490400000       -0.9214340000
 H        3.1012280000       -2.4672470000       -0.3918580000
 N        0.8847850000        1.4195310000        0.5551850000
 C       -0.4087250000        0.9671840000        0.3246190000
 C       -0.6850400000       -0.4111350000        0.2634080000
 S        0.5821250000       -1.5869780000        0.6365540000
 C       -1.4630480000        1.8684430000        0.1433510000
 C       -2.7646220000        1.4244380000       -0.0740990000
 C       -3.0165960000        0.0579630000       -0.1488530000
 C       -1.9778620000       -0.8603860000        0.0054430000
 H       -1.2609400000        2.9425560000        0.1811710000
 H       -3.5805680000        2.1376010000       -0.1990570000
 H       -2.1817000000       -1.9307450000       -0.0579610000
 H        0.9893700000        2.4252860000        0.5788640000
Cl       -4.6274310000       -0.5134810000       -0.4369630000

