%nproc=8
%mem=18000mb
#P PBE1PBE DEF2TZVPP OPT FREQ SCF(tight) INT(ultrafine)

 37-dimethyl-7a_n_rd

-1 2
 C       -3.6673410000        1.1263940000        0.1192270000
 C       -3.7969910000       -0.2880040000        0.2077090000
 C       -2.4111130000        1.7072260000       -0.0400350000
 C       -1.2403500000        0.9432220000       -0.1242090000
 C       -1.3664330000       -0.4878980000       -0.0879730000
 C       -2.6357010000       -1.0510290000        0.0938660000
 H       -4.5540160000        1.7646420000        0.1839700000
 H       -2.3244470000        2.8005340000       -0.0894280000
 H       -2.7083020000       -2.1450340000        0.1336860000
 N        0.0000000000        1.5453210000       -0.2285940000
 C        1.2403500000        0.9432220000       -0.1242090000
 C        1.3664330000       -0.4878980000       -0.0879740000
 S        0.0000000000       -1.4996680000       -0.5581020000
 C        2.4111130000        1.7072250000       -0.0400340000
 C        3.6673410000        1.1263940000        0.1192270000
 C        3.7969910000       -0.2880040000        0.2077080000
 C        2.6357010000       -1.0510290000        0.0938650000
 H        2.3244470000        2.8005330000       -0.0894270000
 H        4.5540150000        1.7646420000        0.1839700000
 H        2.7083020000       -2.1450340000        0.1336840000
 H        0.0000000000        2.5553250000       -0.2181420000
 C        5.1370160000       -0.9210990000        0.4383750000
 H        5.8755010000       -0.6257900000       -0.3317840000
 H        5.0689770000       -2.0205620000        0.4228250000
 H        5.5805480000       -0.6356070000        1.4129440000
 C       -5.1370160000       -0.9210990000        0.4383740000
 H       -5.5805550000       -0.6355960000        1.4129370000
 H       -5.0689750000       -2.0205620000        0.4228380000
 H       -5.8754970000       -0.6258020000       -0.3317930000

