%nproc=8
%mem=18000mb
#P PBE1PBE DEF2TZVPP OPT FREQ SCF(tight) INT(ultrafine)

 4-methyl-3d_2c_ox

 3 2
 C       -3.8271280000       -0.1610480000       -0.2058410000
 C       -3.2864280000       -1.3656300000       -0.6353710000
 C       -2.9720740000        0.8158890000        0.3509910000
 N       -1.6496060000        0.6394650000        0.4322700000
 C       -1.9061200000       -1.5588470000       -0.5113010000
 C       -1.0730660000       -0.5329750000       -0.0126680000
 C        0.3754370000       -0.7423880000        0.0219010000
 N        1.2618950000        0.2604190000       -0.2966600000
 C        0.8611450000       -2.0239280000        0.4061460000
 C        2.2271100000       -2.2460190000        0.5601970000
 C        3.0918490000       -1.1955900000        0.2932590000
 C        2.6035120000        0.0865330000       -0.1520600000
 C       -0.8118650000        1.6728770000        1.1020680000
 C        0.0661000000        2.4262480000        0.1135750000
 H       -0.2248890000        1.1476430000        1.8717880000
 H       -1.4859560000        2.3541670000        1.6382430000
 C        0.7047980000        1.5028870000       -0.9102270000
 H        0.8181820000        2.9824860000        0.6961460000
 H       -0.5094240000        3.1845790000       -0.4418340000
 H        1.5005570000        2.0033130000       -1.4723380000
 H       -0.0203260000        1.1607100000       -1.6648080000
 H        0.1500740000       -2.8224310000        0.6374950000
 H        2.6051170000       -3.2219860000        0.8851250000
 H        4.1762910000       -1.3213550000        0.3923280000
 H       -3.9208540000       -2.1544770000       -1.0547030000
 H       -1.4650330000       -2.4972720000       -0.8592850000
 H       -4.9025320000        0.0452140000       -0.2576600000
 H       -3.3729530000        1.7490710000        0.7626110000
 C        3.5734420000        1.1390610000       -0.4720090000
 H        3.8990480000        1.0246260000       -1.5355020000
 H        4.4971650000        0.9966050000        0.1127360000
 H        3.2092500000        2.1674970000       -0.3515640000

