%nproc=8
%mem=18000mb
#P PBE1PBE DEF2TZVPP OPT FREQ SCF(tight) INT(ultrafine)

 4-methyl-3d_2c_rd

 1 2
 C        3.8315890000        0.0781580000       -0.1787520000
 C        3.3115560000        1.3490140000       -0.5322010000
 C        2.9692430000       -0.8751820000        0.2805030000
 N        1.6296220000       -0.6454100000        0.3997460000
 C        1.9583240000        1.5708430000       -0.4458780000
 C        1.0667140000        0.5595960000       -0.0149490000
 C       -0.3544380000        0.7838620000        0.0189460000
 N       -1.2623060000       -0.2303530000       -0.2902650000
 C       -0.8736250000        2.0525880000        0.3532960000
 C       -2.2279810000        2.2503620000        0.4691000000
 C       -3.1066490000        1.1662570000        0.2577410000
 C       -2.6189420000       -0.0615120000       -0.1260690000
 C        0.7900220000       -1.6320680000        1.0727470000
 C       -0.0973420000       -2.3923220000        0.0991120000
 H        0.1811240000       -1.0896270000        1.8139800000
 H        1.4414720000       -2.3135750000        1.6347590000
 C       -0.7265270000       -1.4426500000       -0.9094690000
 H       -0.8662490000       -2.9338470000        0.6718950000
 H        0.4830920000       -3.1496080000       -0.4508850000
 H       -1.5187440000       -1.9392720000       -1.4782150000
 H        0.0254460000       -1.1141300000       -1.6442850000
 H       -0.1763190000        2.8560590000        0.5914290000
 H       -2.6192420000        3.2262370000        0.7622350000
 H       -4.1819530000        1.2858650000        0.3908560000
 H        3.9742130000        2.1350720000       -0.8985500000
 H        1.5393770000        2.5224870000       -0.7745580000
 H        4.8947840000       -0.1492840000       -0.2577150000
 H        3.3064490000       -1.8638660000        0.5968260000
 C       -3.5358210000       -1.2102460000       -0.3970200000
 H       -3.5931450000       -1.4448140000       -1.4725410000
 H       -4.5491900000       -0.9529390000       -0.0667220000
 H       -3.2290670000       -2.1246170000        0.1324660000

