%nproc=8
%mem=18000mb
#P PBE1PBE DEF2TZVPP OPT FREQ SCF(tight) INT(ultrafine)

 11-bis-4-nitrophenyl-3l_2c_gn

 2 1
 N       -0.0000000000       -0.0000000000        3.5232990000
 C       -1.1091090000       -0.3801520000        2.8508940000
 C       -1.1392180000       -0.3763240000        1.4687320000
 C        1.1091090000        0.3801520000        2.8508940000
 C        1.1392180000        0.3763240000        1.4687320000
 C       -0.0000000000       -0.0000000000        0.7412860000
 C        0.0000000000        0.0000000000       -0.7412860000
 C       -1.1392190000        0.3763210000       -1.4687320000
 C        1.1392190000       -0.3763210000       -1.4687320000
 C        1.1091100000       -0.3801490000       -2.8508940000
 C       -1.1091100000        0.3801490000       -2.8508940000
 N        0.0000000000        0.0000000000       -3.5232990000
 H        1.9546990000       -0.7110930000       -3.4568810000
 H        2.0518680000       -0.7151740000       -0.9747500000
 H       -2.0518680000        0.7151740000       -0.9747500000
 H       -1.9546990000        0.7110930000       -3.4568810000
 H        2.0518660000        0.7151790000        0.9747500000
 H        1.9546970000        0.7110980000        3.4568810000
 H       -1.9546970000       -0.7110980000        3.4568810000
 H       -2.0518660000       -0.7151790000        0.9747500000
 C       -0.0000000000       -0.0000000000        4.9700080000
 C        1.0328140000       -0.6544440000        5.6449120000
 C       -1.0328140000        0.6544440000        5.6449120000
 C       -1.0303910000        0.6529300000        7.0356390000
 C       -0.0000000000       -0.0000000000        7.7012700000
 C        1.0303910000       -0.6529300000        7.0356390000
 H        1.8142410000       -1.1911440000        5.1015510000
 H        1.8050390000       -1.1577510000        7.6158220000
 H       -1.8142410000        1.1911440000        5.1015510000
 H       -1.8050390000        1.1577510000        7.6158220000
 C        0.0000000000        0.0000000000       -4.9700080000
 C       -1.0328130000       -0.6544460000       -5.6449120000
 C       -1.0303900000       -0.6529320000       -7.0356390000
 C        0.0000000000        0.0000000000       -7.7012700000
 C        1.0328130000        0.6544460000       -5.6449120000
 C        1.0303900000        0.6529320000       -7.0356390000
 H        1.8142380000        1.1911480000       -5.1015510000
 H        1.8050360000        1.1577560000       -7.6158220000
 H       -1.8142380000       -1.1911480000       -5.1015510000
 H       -1.8050360000       -1.1577560000       -7.6158220000
 N        0.0000000000        0.0000000000       -9.1859590000
 O       -0.9213390000       -0.5624300000       -9.7211430000
 O        0.9213390000        0.5624300000       -9.7211430000
 N       -0.0000000000       -0.0000000000        9.1859590000
 O       -0.9213400000        0.5624280000        9.7211430000
 O        0.9213400000       -0.5624280000        9.7211430000

