%nproc=8
%mem=18000mb
#P PBE1PBE DEF2TZVPP OPT(calcall) FREQ SCF(tight) INT(ultrafine)

 1-2-hydroxyethyl-3q_2c_ox

 3 2
 N       -2.6979950000        0.4072170000        0.3863660000
 C       -2.0731470000       -0.7233270000        0.8209360000
 C       -0.7082140000       -0.8688940000        0.7059050000
 C       -1.9712990000        1.4135870000       -0.1798930000
 C       -0.6032770000        1.3193000000       -0.3030320000
 C        0.0792400000        0.1646830000        0.1465060000
 C        1.5486390000        0.0490730000        0.0450070000
 C        2.1765670000       -1.2019490000       -0.0978160000
 C        3.5586390000       -1.2758670000       -0.1925060000
 N        4.3186760000       -0.1662490000       -0.1324510000
 C        2.3749350000        1.1894930000        0.0937620000
 C        3.7491620000        1.0493830000        0.0117650000
 H       -2.6982330000       -1.4918110000        1.2828020000
 H       -0.2616200000       -1.7842860000        1.1009380000
 H       -2.5199720000        2.2998650000       -0.5116160000
 H       -0.0781400000        2.1544740000       -0.7722330000
 H        1.6155020000       -2.1355880000       -0.1743480000
 H        4.0795490000       -2.2284290000       -0.3181620000
 H        4.4251210000        1.9076060000        0.0617710000
 H        1.9774500000        2.1969430000        0.2331610000
 C        5.7887770000       -0.2632240000       -0.2126840000
 H        6.0761790000       -1.2986070000       -0.4250820000
 H        6.2206730000        0.0543150000        0.7488590000
 H        6.1494910000        0.3963180000       -1.0152220000
 C       -4.1187410000        0.5611640000        0.5622160000
 C       -5.0615920000       -0.0129520000       -0.6440450000
 H       -4.3907910000        1.6270310000        0.5978570000
 H       -4.4525650000        0.0445220000        1.4744940000
 O       -4.9346150000       -1.3484460000       -0.7528300000
 H       -4.6022650000        0.4604540000       -1.5427930000
 H       -6.0839300000        0.3490740000       -0.4506670000
 H       -5.7624280000       -1.8539150000       -0.5812460000

