%nproc=8
%mem=18000mb
#P PBE1PBE DEF2TZVPP OPT(calcall) FREQ SCF(tight) INT(ultrafine)

 1-2-hydroxyethyl-3q_2c_gn

 2 1
 N       -2.7322130000        0.5367690000        0.2926630000
 C       -2.1459780000       -0.5510640000        0.8308320000
 C       -0.7739830000       -0.7245230000        0.7563900000
 C       -1.9959430000        1.4751780000       -0.3332590000
 C       -0.6214410000        1.3581400000       -0.4280760000
 C        0.0209920000        0.2397040000        0.1237530000
 C        1.4948270000        0.0858910000        0.0452770000
 C        2.0829370000       -1.1648660000       -0.1846100000
 C        3.4611710000       -1.2784740000       -0.2536260000
 N        4.2556170000       -0.2034980000       -0.0958590000
 C        2.3501780000        1.1878070000        0.2010290000
 C        3.7192760000        1.0132180000        0.1298040000
 H       -2.8096640000       -1.2726370000        1.3088000000
 H       -0.3411620000       -1.6080280000        1.2293050000
 H       -2.5365420000        2.3254220000       -0.7542770000
 H       -0.0705100000        2.1388960000       -0.9557670000
 H        1.4829500000       -2.0637460000       -0.3389950000
 H        3.9557300000       -2.2338010000       -0.4406480000
 H        4.4201680000        1.8416530000        0.2562200000
 H        1.9671340000        2.1892740000        0.4063890000
 C        5.7212290000       -0.3387230000       -0.1648730000
 H        5.9799800000       -1.3839010000       -0.3646120000
 H        6.1589380000       -0.0292280000        0.7938970000
 H        6.1060150000        0.2955290000       -0.9748090000
 C       -4.2061360000        0.6609880000        0.3557000000
 C       -4.8865520000       -0.2686060000       -0.6340250000
 H       -4.4688280000        1.7085250000        0.1620650000
 H       -4.5076790000        0.4101110000        1.3825960000
 O       -4.4699570000       -1.5658560000       -0.3385310000
 H       -4.6324930000        0.0327320000       -1.6693000000
 H       -5.9744810000       -0.1193340000       -0.5046080000
 H       -4.9571890000       -2.2055270000       -0.8715250000

