%nproc=8
%mem=18000mb
#P PBE1PBE DEF2TZVPP OPT FREQ SCF(tight) INT(ultrafine)

 231011-tetramethyl-3c_2c_rd

 1 2
 C       -3.5427410000       -0.0878820000        0.0422720000
 C       -2.8786050000        1.1838170000       -0.0865210000
 C       -1.5025240000        1.2085400000       -0.0974600000
 C       -2.7575900000       -1.2011000000        0.1618160000
 N       -1.3944630000       -1.1576410000        0.1581670000
 C       -0.7129000000        0.0387500000        0.0151970000
 C        0.7128990000        0.0387490000       -0.0151930000
 N        1.3944630000       -1.1576420000       -0.1581650000
 C       -0.6262380000       -2.3607830000        0.4243670000
 C        0.6262380000       -2.3607850000       -0.4243580000
 H       -1.2425210000       -3.2385280000        0.1896260000
 H       -0.3614890000       -2.4042040000        1.4953660000
 H        0.3614900000       -2.4042130000       -1.4953580000
 H        1.2425210000       -3.2385290000       -0.1896110000
 C        1.5025240000        1.2085390000        0.0974650000
 C        2.8786050000        1.1838170000        0.0865220000
 C        3.5427410000       -0.0878820000       -0.0422780000
 C        2.7575890000       -1.2011000000       -0.1618200000
 H       -3.1901220000       -2.1975910000        0.2736160000
 H        3.1901210000       -2.1975910000       -0.2736240000
 C        3.6774740000        2.4385760000        0.2211420000
 H        3.0336620000        3.3225470000        0.3149700000
 H        4.3346720000        2.5840540000       -0.6513390000
 H        4.3347970000        2.3975690000        1.1046200000
 C        5.0343730000       -0.1974460000       -0.0422720000
 H        5.4775360000        0.3865100000       -0.8644730000
 H        5.3635450000       -1.2391380000       -0.1542640000
 H        5.4643020000        0.1928900000        0.8938950000
 C       -3.6774730000        2.4385770000       -0.2211410000
 H       -3.0336620000        3.3225490000       -0.3149510000
 H       -4.3346860000        2.5840450000        0.6513300000
 H       -4.3347820000        2.3975770000       -1.1046300000
 C       -5.0343730000       -0.1974460000        0.0422610000
 H       -5.3635450000       -1.2391400000        0.1542430000
 H       -5.4642990000        0.1928980000       -0.8939040000
 H       -5.4775390000        0.3865020000        0.8644660000
 H       -0.9959530000        2.1645600000       -0.2276860000
 H        0.9959540000        2.1645580000        0.2276950000

