%nproc=8
%mem=18000mb
#P PBE1PBE DEF2TZVPP OPT FREQ SCF(tight) INT(ultrafine)

 213-dimethyl-3e_2c_ox

 3 2
 C        3.4871360000       -0.4127720000        0.2176990000
 C        2.8562030000       -1.5419620000       -0.3352700000
 C        1.4487620000       -1.4926840000       -0.3413470000
 C        2.7270690000        0.6577860000        0.7376290000
 N        1.3904640000        0.6993780000        0.6737530000
 C        0.7250560000       -0.3570170000        0.0950690000
 H        4.5785710000       -0.3550100000        0.3044390000
 H        3.2211430000        1.4899540000        1.2523200000
 H        0.8918870000       -2.3336790000       -0.7652460000
 C       -0.7250550000       -0.3570160000       -0.0950710000
 N       -1.3904620000        0.6993750000       -0.6737530000
 C        0.6994400000        1.8406940000        1.3663020000
 C        0.5708970000        3.0881630000        0.5029510000
 H        1.3091480000        2.0455600000        2.2572280000
 H       -0.2653920000        1.4640090000        1.7364310000
 C       -0.6994410000        1.8406930000       -1.3663030000
 C       -0.5709010000        3.0881620000       -0.5029520000
 H       -1.3091480000        2.0455570000       -2.2572290000
 H        0.2653920000        1.4640100000       -1.7364300000
 H        1.5347330000        3.2857240000        0.0029800000
 H        0.4310020000        3.9351010000        1.1938420000
 H       -1.5347370000        3.2857210000       -0.0029800000
 H       -0.4310080000        3.9351020000       -1.1938420000
 C       -1.4487620000       -1.4926840000        0.3413470000
 C       -2.8562030000       -1.5419620000        0.3352710000
 C       -3.4871360000       -0.4127730000       -0.2176980000
 H       -0.8918860000       -2.3336800000        0.7652430000
 C       -2.7270700000        0.6577830000       -0.7376280000
 H       -3.2211430000        1.4899510000       -1.2523190000
 H       -4.5785700000       -0.3550120000       -0.3044370000
 C        3.6201430000       -2.6943160000       -0.8633090000
 H        4.3982050000       -3.0067270000       -0.1456570000
 H        4.1607590000       -2.3938640000       -1.7811330000
 H        2.9826830000       -3.5540220000       -1.1046640000
 C       -3.6201410000       -2.6943180000        0.8633090000
 H       -2.9826780000       -3.5540200000        1.1046730000
 H       -4.3981940000       -3.0067380000        0.1456520000
 H       -4.1607660000       -2.3938660000        1.7811270000

