%nproc=8
%mem=18000mb
#P PBE1PBE DEF2TZVPP OPT FREQ SCF(tight) INT(ultrafine)

 11-bis-2-hydroxyethyl-3l_2c_rd

 1 2
 N       -3.5487420000        0.0332530000       -0.4065430000
 C       -2.8414390000        1.1997450000       -0.4019640000
 C       -2.8633200000       -1.1467420000       -0.4020280000
 C       -1.4761440000        1.2162280000       -0.4006870000
 C       -0.7145680000        0.0067070000       -0.3978980000
 C       -1.4986810000       -1.1882850000       -0.4005700000
 C        0.7145680000       -0.0067020000       -0.3978980000
 C        1.4986810000        1.1882900000       -0.4005560000
 C        2.8633200000        1.1467470000       -0.4020140000
 N        3.5487420000       -0.0332480000       -0.4065430000
 C        2.8414390000       -1.1997410000       -0.4019790000
 C        1.4761440000       -1.2162240000       -0.4007020000
 H        3.4306790000       -2.1180880000       -0.4090840000
 H        0.9930450000       -2.1924500000       -0.4069600000
 H        1.0340690000        2.1734480000       -0.4068370000
 H        3.4706420000        2.0533520000       -0.4084160000
 H       -3.4706420000       -2.0533470000       -0.4084410000
 H       -1.0340690000       -2.1734430000       -0.4068640000
 H       -3.4306790000        2.1180920000       -0.4090580000
 H       -0.9930450000        2.1924550000       -0.4069340000
 C       -5.0039610000        0.0403000000       -0.3255180000
 C       -5.5210330000        0.0014570000        1.1172870000
 H       -5.3926570000       -0.8350420000       -0.8650040000
 H       -5.3740460000        0.9349460000       -0.8485210000
 O       -6.9003970000       -0.1608600000        1.1417120000
 H       -5.1769460000        0.9007100000        1.6641630000
 H       -5.0746480000       -0.8675360000        1.6293580000
 C        5.0039610000       -0.0402970000       -0.3255190000
 C        5.5210330000       -0.0014700000        1.1172870000
 H        5.3926570000        0.8350520000       -0.8649940000
 H        5.3740460000       -0.9349360000       -0.8485310000
 O        6.9003970000        0.1608470000        1.1417130000
 H        5.1769460000       -0.9007290000        1.6641520000
 H        5.0746480000        0.8675180000        1.6293680000
 H       -7.3329740000        0.6920880000        1.0316810000
 H        7.3329740000       -0.6920990000        1.0316730000

