%nproc=8
%mem=18000mb
#P PBE1PBE DEF2TZVPP OPT FREQ SCF(tight) INT(ultrafine)

 38-dimethyl-3-8-phenanthrolinium_2c_rd

 1 2
 N       -3.5232610000       -0.2500710000        0.0263000000
 C       -2.7990820000        0.8997370000        0.0165030000
 C       -1.4166360000        0.8973940000        0.0078000000
 C       -0.7044360000       -0.3533970000        0.0040480000
 C       -2.8718190000       -1.4540850000        0.0201210000
 C       -1.5130850000       -1.5352980000        0.0111280000
 C       -0.6774010000        2.1337490000        0.0041950000
 C        0.6773640000        2.1337630000       -0.0041690000
 C        0.7044400000       -0.3533790000       -0.0040220000
 C        1.4166180000        0.8974250000       -0.0077800000
 C        2.7990680000        0.8997950000       -0.0164920000
 N        3.5232620000       -0.2499840000       -0.0262980000
 C        1.5131150000       -1.5352640000       -0.0110930000
 C        2.8718390000       -1.4540280000       -0.0201040000
 H        3.3680630000        1.8308160000       -0.0185200000
 H        1.0646830000       -2.5281710000       -0.0138320000
 H        3.5076250000       -2.3404140000       -0.0254490000
 H       -1.2286010000        3.0769860000        0.0077100000
 H        1.2285440000        3.0770120000       -0.0076790000
 H       -3.5075730000       -2.3404920000        0.0254750000
 H       -1.0646390000       -2.5281980000        0.0138930000
 H       -3.3681090000        1.8307400000        0.0185340000
 C       -4.9769510000       -0.2058660000       -0.0336480000
 H       -5.3382710000        0.7126680000        0.4449840000
 H       -5.3949930000       -1.0661750000        0.5038520000
 H       -5.3256780000       -0.2291070000       -1.0779200000
 C        4.9769620000       -0.2059480000        0.0335480000
 H        5.3381560000        0.7139800000       -0.4424670000
 H        5.3949730000       -1.0646850000       -0.5065110000
 H        5.3258460000       -0.2321690000        1.0776960000

