%nproc=8
%mem=18000mb
#P PBE1PBE DEF2TZVPP OPT FREQ SCF(tight) INT(ultrafine)

 38-dimethyl-3-8-phenanthrolinium_2c_ox

 3 2
 N        0.2268980000       -3.5459290000        0.0000000000
 C       -0.9022770000       -2.8388830000        0.0000000000
 C       -0.8833300000       -1.4199690000        0.0000000000
 C        0.3724470000       -0.7334520000        0.0000000000
 C        1.4291820000       -2.9094460000        0.0000000000
 C        1.5271400000       -1.5197340000        0.0000000000
 C       -2.1023110000       -0.7050970000        0.0000000000
 C       -2.1023120000        0.7050970000        0.0000000000
 C        0.3724450000        0.7334530000        0.0000000000
 C       -0.8833300000        1.4199680000        0.0000000000
 C       -0.9022770000        2.8388840000        0.0000000000
 N        0.2268950000        3.5459290000        0.0000000000
 C        1.5271400000        1.5197360000        0.0000000000
 C        1.4291830000        2.9094450000        0.0000000000
 H       -1.8436280000        3.3985740000        0.0000000000
 H        2.5336490000        1.0956220000        0.0000000000
 H        2.3185710000        3.5491440000        0.0000000000
 H       -3.0600390000       -1.2379490000        0.0000000000
 H       -3.0600390000        1.2379480000        0.0000000000
 H        2.3185730000       -3.5491410000        0.0000000000
 H        2.5336500000       -1.0956230000        0.0000000000
 H       -1.8436260000       -3.3985750000        0.0000000000
 C        0.2029590000       -5.0299450000        0.0000000000
 H       -0.8366190000       -5.3761090000        0.0000000000
 H        0.7184680000       -5.3916700000        0.9017760000
 H        0.7184680000       -5.3916700000       -0.9017760000
 C        0.2029590000        5.0299450000        0.0000000000
 H       -0.8366170000        5.3761120000        0.0000000000
 H        0.7184690000        5.3916690000       -0.9017760000
 H        0.7184690000        5.3916690000        0.9017760000

