%nproc=8
%mem=18000mb
#P PBE1PBE DEF2TZVPP OPT FREQ SCF(tight) INT(ultrafine)

 diethylamine_n_rd

-1 2
 N       -0.2257500000        1.9687700000       -0.2563800000
 C        0.2906600000        1.4956500000       -1.5463300000
 C        0.3554200000        1.3684100000        0.9558100000
 C       -0.3722700000        0.1388200000        1.5228500000
 C        0.0630600000        0.0196800000       -1.9228600000
 H        0.3838400000        2.1410600000        1.7368500000
 H       -0.1597900000        2.1322200000       -2.3181300000
 H        0.1020900000       -0.1932300000        2.4548100000
 H       -0.3733100000       -0.7001300000        0.8208100000
 H        0.4363000000       -0.1737900000       -2.9364800000
 H        0.5867100000       -0.6585100000       -1.2411500000
 H       -1.2415000000        1.8878700000       -0.2335500000
 H       -1.4154500000        0.3865600000        1.7554000000
 H       -1.0041200000       -0.2313600000       -1.9028700000
 H        1.3991900000        1.1180500000        0.7301200000
 H        1.3671600000        1.7092100000       -1.5598000000

