%nproc=8
%mem=18000mb
#P PBE1PBE DEF2TZVPP OPT FREQ SCF(tight) INT(ultrafine)

 anisole_n_gn

 0 1
 C       -0.0000100000       -0.0545100000       -0.4359000000
 C       -0.0000100000        1.1423300000        0.2752500000
 H       -0.0000100000        2.0910300000       -0.2552200000
 C       -0.0000100000        1.1482200000        1.6737300000
 H       -0.0000100000        2.0931300000        2.2059900000
 C       -0.0000100000       -0.0683800000        2.3654900000
 C       -0.0000100000       -1.2776400000        1.6555900000
 H       -0.0000100000       -2.2097200000        2.2127700000
 C       -0.0000100000       -1.2647900000        0.2659100000
 H       -0.0000100000       -2.2076100000       -0.2747100000
 H       -0.0000100000       -0.0487700000       -1.5217200000
 O        0.0000000000       -0.1830500000        3.7343300000
 C        0.0000000000        1.0321900000        4.4914900000
 H        0.0000000000        0.7229100000        5.5374500000
 H       -0.8969200000        1.6285800000        4.2820000000
 H        0.8969200000        1.6285700000        4.2820000000

