%nproc=8
%mem=18000mb
#P PBE1PBE DEF2TZVPP OPT FREQ SCF(tight) INT(ultrafine)

 3f_2c_ox

 3 2
 C        0.0000000000        3.5648060000       -0.3022200000
 C        0.0000000000        2.8621470000        0.8968680000
 C        0.0000000000        1.4369630000        0.8941180000
 C        0.0000000000        2.8394440000       -1.4880920000
 N        0.0000000000        1.4837040000       -1.4715690000
 C        0.0000000000        0.7348950000       -0.3458910000
 C        0.0000000000        0.7112520000        2.1100810000
 C       -0.0000000000       -0.7112520000        2.1100810000
 C       -0.0000000000       -1.4369630000        0.8941180000
 C       -0.0000000000       -0.7348950000       -0.3458910000
 H        0.0000000000        4.6599860000       -0.3333250000
 H        0.0000000000        3.3132240000       -2.4777760000
 H        0.0000000000        3.4009120000        1.8523650000
 H        0.0000000000        1.2473110000        3.0677750000
 H       -0.0000000000       -1.2473110000        3.0677750000
 C       -0.0000000000       -2.8621470000        0.8968680000
 C       -0.0000000000       -3.5648060000       -0.3022200000
 N       -0.0000000000       -1.4837040000       -1.4715690000
 C       -0.0000000000       -2.8394440000       -1.4880920000
 H       -0.0000000000       -3.3132240000       -2.4777760000
 H       -0.0000000000       -4.6599860000       -0.3333250000
 H       -0.0000000000       -3.4009120000        1.8523650000
 H        0.0000000000        1.0496960000       -2.3972500000
 H       -0.0000000000       -1.0496960000       -2.3972500000

