%nproc=8
%mem=18000mb
#P PBE1PBE DEF2TZVPP OPT FREQ SCF(tight) INT(ultrafine)

 3f_2c_gn

 2 1
 C        0.3038880000       -3.5272880000        0.0000000000
 C       -0.8863790000       -2.8264900000        0.0000000000
 C       -0.9007120000       -1.4084000000        0.0000000000
 C        1.4972090000       -2.8085630000        0.0000000000
 N        1.4809120000       -1.4718230000        0.0000000000
 C        0.3379300000       -0.7177550000        0.0000000000
 C       -2.1294010000       -0.6810060000        0.0000000000
 C       -2.1294010000        0.6810060000       -0.0000000000
 C       -0.9007120000        1.4084000000       -0.0000000000
 C        0.3379300000        0.7177550000       -0.0000000000
 H        0.3318550000       -4.6189380000        0.0000000000
 H        2.4803550000       -3.2871780000        0.0000000000
 H       -1.8392200000       -3.3639250000        0.0000000000
 H       -3.0691500000       -1.2378460000        0.0000000000
 H       -3.0691490000        1.2378460000       -0.0000000000
 C       -0.8863790000        2.8264900000       -0.0000000000
 C        0.3038880000        3.5272880000       -0.0000000000
 N        1.4809120000        1.4718230000       -0.0000000000
 C        1.4972090000        2.8085630000       -0.0000000000
 H        2.4803550000        3.2871770000       -0.0000000000
 H        0.3318550000        4.6189380000       -0.0000000000
 H       -1.8392200000        3.3639250000       -0.0000000000
 H        2.3945700000       -1.0248200000        0.0000000000
 H        2.3945700000        1.0248200000       -0.0000000000

