%nproc=8
%mem=18000mb
#P PBE1PBE DEF2TZVPP OPT FREQ SCF(tight) INT(ultrafine)

 3f_2c_rd

 1 2
 C       -0.0245910000        3.5171970000       -0.3321030000
 C       -0.0374890000        2.8167040000        0.8905790000
 C       -0.0141210000        1.4232180000        0.9130050000
 C        0.0387860000        2.8069000000       -1.5015780000
 N        0.0603450000        1.4481180000       -1.4875880000
 C        0.0141210000        0.7007750000       -0.3224020000
 C       -0.0133020000        0.6784890000        2.1397220000
 C        0.0133020000       -0.6784890000        2.1397220000
 C        0.0141210000       -1.4232180000        0.9130050000
 C       -0.0141210000       -0.7007750000       -0.3224020000
 H       -0.0488590000        4.6064620000       -0.3635710000
 H        0.0820310000        3.2777670000       -2.4849270000
 H       -0.0629620000        3.3635240000        1.8353500000
 H       -0.0274870000        1.2343120000        3.0795360000
 H        0.0274870000       -1.2343120000        3.0795360000
 C        0.0374890000       -2.8167040000        0.8905790000
 C        0.0245910000       -3.5171970000       -0.3321030000
 N       -0.0603450000       -1.4481180000       -1.4875880000
 C       -0.0387860000       -2.8069000000       -1.5015780000
 H       -0.0820310000       -3.2777670000       -2.4849270000
 H        0.0488590000       -4.6064620000       -0.3635710000
 H        0.0629620000       -3.3635240000        1.8353500000
 H        0.2076020000        0.9879520000       -2.3766090000
 H       -0.2076020000       -0.9879520000       -2.3766090000

