%nproc=8
%mem=18000mb
#P PBE1PBE DEF2TZVPP OPT FREQ SCF(tight) INT(ultrafine)

 6-phenyl-3b_2c_ox

 3 2
 C       -3.6559520000       -2.4768760000        0.1259480000
 C       -4.3068170000       -1.2518130000        0.3183800000
 C       -2.2927580000       -2.4835470000       -0.0537560000
 C       -3.5705260000       -0.0667170000        0.3019530000
 C       -2.1932280000       -0.0878840000        0.0990220000
 N       -1.5776850000       -1.3140940000       -0.0635220000
 C       -1.3728840000        1.1189740000        0.0027700000
 C       -0.1995380000       -1.3807060000       -0.1807260000
 C        0.5997240000       -0.2772730000       -0.1767900000
 N       -0.0060870000        1.0035920000       -0.1817590000
 C       -1.9346920000        2.3951140000        0.0313990000
 C       -1.1519110000        3.5308350000       -0.1573570000
 C        0.7522620000        2.1123380000       -0.4364840000
 C        0.2124220000        3.3789680000       -0.4209340000
 H       -4.2023000000       -3.4247890000        0.1261520000
 H       -1.7184300000       -3.4035510000       -0.1890220000
 H       -5.3891750000       -1.2181050000        0.4805520000
 H       -4.0926590000        0.8784080000        0.4506070000
 H       -3.0076360000        2.5144700000        0.1810190000
 H       -1.6104300000        4.5246030000       -0.1315640000
 H        1.8009380000        1.9398100000       -0.6818260000
 H        0.8563270000        4.2377170000       -0.6316490000
 H        0.2297610000       -2.3843650000       -0.1950860000
 C        2.0519050000       -0.4547940000       -0.0494050000
 C        2.7961370000        0.2842310000        0.9430930000
 C        2.7106150000       -1.4356590000       -0.8467580000
 C        4.0627890000       -1.6435460000       -0.6944620000
 C        4.1375900000        0.0498220000        1.1159300000
 C        4.7907910000       -0.9130730000        0.2996920000
 H        2.2845370000        0.9873200000        1.6066080000
 H        4.7009640000        0.5747860000        1.8929190000
 H        5.8600530000       -1.1118910000        0.4395680000
 H        2.1657100000       -1.9760330000       -1.6254290000
 H        4.5931930000       -2.3552430000       -1.3349710000

