%nproc=8
%mem=18000mb
#P PBE1PBE DEF2TZVPP OPT FREQ SCF(tight) INT(ultrafine)

 6-phenyl-3b_2c_rd

 1 2
 C       -3.7293030000       -2.4201380000        0.0868080000
 C       -4.3713330000       -1.1493310000        0.1240250000
 C       -2.3699370000       -2.4586460000        0.0375340000
 C       -3.6271210000       -0.0039920000        0.1025870000
 C       -2.2026810000       -0.0445010000        0.0398150000
 N       -1.6187450000       -1.3144350000        0.0158590000
 C       -1.3817140000        1.0966910000       -0.0086060000
 C       -0.2259650000       -1.4045140000        0.0167230000
 C        0.5821360000       -0.3317160000       -0.0267960000
 N        0.0148250000        0.9647620000       -0.0932070000
 C       -1.9006260000        2.4248620000        0.0000930000
 C       -1.0860100000        3.5123310000       -0.1326210000
 C        0.8177370000        2.0626090000       -0.2646640000
 C        0.3156940000        3.3277420000       -0.2919830000
 H       -4.2971510000       -3.3501600000        0.1006180000
 H       -1.8011280000       -3.3892500000        0.0150280000
 H       -5.4603040000       -1.0889480000        0.1689710000
 H       -4.1276020000        0.9618860000        0.1277470000
 H       -2.9741210000        2.5674380000        0.1067990000
 H       -1.5115340000        4.5174930000       -0.1256220000
 H        1.8797990000        1.8468880000       -0.3721910000
 H        0.9927490000        4.1701090000       -0.4323560000
 H        0.1920500000       -2.4073680000        0.0893160000
 C        2.0535270000       -0.4965870000        0.0130790000
 C        2.7890600000       -0.0667970000        1.1292200000
 C        2.7120510000       -1.1312590000       -1.0477510000
 C        4.0906670000       -1.3312240000       -0.9943590000
 C        4.1646180000       -0.2696780000        1.1753550000
 C        4.8165230000       -0.9005650000        0.1141390000
 H        2.2808240000        0.4129460000        1.9700870000
 H        4.7311230000        0.0579340000        2.0498300000
 H        5.8966360000       -1.0584760000        0.1546230000
 H        2.1433280000       -1.4603120000       -1.9210310000
 H        4.5988410000       -1.8242010000       -1.8259740000

