%nproc=8
%mem=18000mb
#P PBE1PBE DEF2TZVPP OPT FREQ SCF(tight) INT(ultrafine)

 14-nq-2-methyl_n_gn

 0 1
 C       -2.7351970000       -1.3562210000        0.0000050000
 C       -3.1192920000       -0.0124120000        0.0000060000
 C       -1.3860670000       -1.6983870000       -0.0000000000
 C       -0.4128980000       -0.6962250000       -0.0000050000
 C       -0.7999930000        0.6532870000       -0.0000030000
 C       -2.1542320000        0.9908140000        0.0000010000
 H       -3.4958820000       -2.1406860000        0.0000080000
 H       -4.1797290000        0.2513650000        0.0000100000
 H       -1.0568840000       -2.7397570000       -0.0000010000
 H       -2.4220220000        2.0496990000        0.0000020000
 C        1.0260160000       -1.0768030000       -0.0000120000
 C        2.0429870000        0.0206540000       -0.0000020000
 C        1.6443770000        1.3097930000       -0.0000010000
 C        0.2293190000        1.7300800000       -0.0000070000
 H        2.3675730000        2.1305330000        0.0000040000
 O        1.3799840000       -2.2394020000        0.0000030000
 O       -0.0733900000        2.9077520000       -0.0000000000
 C        3.4693530000       -0.4094490000        0.0000060000
 H        3.6788650000       -1.0400890000       -0.8780580000
 H        3.6788560000       -1.0400870000        0.8780730000
 H        4.1502260000        0.4514380000        0.0000090000

