%nproc=8
%mem=18000mb
#P PBE1PBE DEF2TZVPP OPT FREQ SCF(tight) INT(ultrafine)

 14-nq-2-methyl_n_ox

 1 2
 C       -2.7413180000       -1.3374340000        0.0000620000
 C       -3.1275730000        0.0035720000       -0.0000420000
 C       -1.3878080000       -1.6900740000        0.0000750000
 C       -0.4119100000       -0.6992710000       -0.0000710000
 C       -0.8096490000        0.6485540000       -0.0000550000
 C       -2.1649210000        1.0089040000       -0.0000800000
 H       -3.5018090000       -2.1220080000        0.0001180000
 H       -4.1865190000        0.2710050000       -0.0001140000
 H       -1.0674460000       -2.7349970000        0.0002150000
 H       -2.4597120000        2.0608730000       -0.0000890000
 C        1.0247940000       -1.0858270000        0.0000170000
 C        2.0485700000        0.0268450000       -0.0000010000
 C        1.6595930000        1.3228960000        0.0000320000
 C        0.2408010000        1.6708100000        0.0000150000
 H        2.3651140000        2.1550680000        0.0000680000
 O        1.3862250000       -2.2349790000       -0.0000290000
 O       -0.0634630000        2.8711400000        0.0000720000
 C        3.4677250000       -0.3892670000       -0.0000390000
 H        3.6604510000       -1.0303790000       -0.8766810000
 H        3.6607000000       -1.0296680000        0.8770810000
 H        4.1572980000        0.4625800000       -0.0004230000

