%nproc=8
%mem=18000mb
#P PBE1PBE DEF2TZVPP OPT FREQ SCF(tight) INT(ultrafine)

 1-cyanomethyl-3q_2c_rd

 1 2
 N       -2.8954480000        0.0000170000       -0.5547040000
 C       -2.2058060000        1.1792370000       -0.4768490000
 C       -0.8495570000        1.2042540000       -0.3416700000
 C       -2.2057800000       -1.1791950000       -0.4769380000
 C       -0.8495290000       -1.2041920000       -0.3417600000
 C       -0.0818150000        0.0000360000       -0.2620130000
 C        1.3399860000        0.0000570000       -0.1104780000
 C        2.1070690000        1.2014110000       -0.0282810000
 C        3.4651100000        1.1719410000        0.1204200000
 N        4.1553240000        0.0000820000        0.1937590000
 C        2.1070980000       -1.2013030000       -0.0283750000
 C        3.4651170000       -1.1718200000        0.1203110000
 H       -2.8010610000        2.0921870000       -0.5288260000
 H       -0.3773180000        2.1846680000       -0.2957030000
 H       -2.8010150000       -2.0921540000       -0.5289830000
 H       -0.3772740000       -2.1846010000       -0.2958670000
 H        1.6374710000        2.1826260000       -0.0828510000
 H        4.0586460000        2.0850930000        0.1856360000
 H        4.0587080000       -2.0849480000        0.1854510000
 H        1.6375030000       -2.1825170000       -0.0830190000
 C        5.5946770000       -0.0002410000        0.4179580000
 H        6.0387720000        0.8930660000       -0.0381560000
 H        6.0399650000       -0.8883040000       -0.0472440000
 H        5.8197310000       -0.0055210000        1.4956060000
 C       -4.3509220000        0.0000020000       -0.6036740000
 C       -4.9523200000       -0.0000780000        0.7321670000
 H       -4.6959070000       -0.8837240000       -1.1613280000
 H       -4.6959280000        0.8837810000       -1.1612310000
 N       -5.4087730000       -0.0001430000        1.7940320000

