%nproc=8
%mem=18000mb
#P PBE1PBE DEF2TZVPP OPT(calcall) FREQ SCF(tight) INT(ultrafine)

 1-cyanomethyl-3q_2c_gn

 2 1
 N       -2.8520650000        0.4668250000        0.1094750000
 C       -2.3036900000       -0.7227370000       -0.2000660000
 C       -0.9274380000       -0.8802610000       -0.2320970000
 C       -2.0727500000        1.5336070000        0.3911300000
 C       -0.6959220000        1.4327360000        0.3658080000
 C       -0.0894210000        0.2047960000        0.0518360000
 C        1.3880010000        0.0614380000        0.0213060000
 C        2.0132010000       -1.0909680000        0.5146480000
 C        3.3938190000       -1.1978760000        0.4742940000
 N        4.1517090000       -0.2124250000       -0.0408300000
 C        2.2055640000        1.0736800000       -0.5042350000
 C        3.5779930000        0.9073190000       -0.5261840000
 H       -2.9926660000       -1.5421700000       -0.4238530000
 H       -0.5319120000       -1.8596750000       -0.5087730000
 H       -2.5836610000        2.4668090000        0.6411070000
 H       -0.1096220000        2.3178810000        0.6206950000
 H        1.4462720000       -1.9105380000        0.9608400000
 H        3.9184450000       -2.0755550000        0.8576750000
 H        4.2503090000        1.6646640000       -0.9363360000
 H        1.7903430000        1.9902480000       -0.9280560000
 C        5.6196520000       -0.3416260000       -0.0839120000
 H        5.9121810000       -1.3020890000        0.3533820000
 H        6.0718670000        0.4771640000        0.4919800000
 H        5.9558250000       -0.2960080000       -1.1287250000
 C       -4.3294760000        0.6643520000        0.1552520000
 C       -5.0601470000       -0.5527980000       -0.1483090000
 H       -4.5930850000        1.4503040000       -0.5713100000
 H       -4.5963530000        1.0189770000        1.1641750000
 N       -5.6216830000       -1.5329660000       -0.3928750000

