%nproc=8
%mem=18000mb
#P PBE1PBE DEF2TZVPP OPT FREQ SCF(tight) INT(ultrafine)

 1-cyanomethyl-3q_2c_ox

 3 2
 N       -2.8579860000        0.4489200000        0.0622120000
 C       -2.3097940000       -0.7643500000       -0.1127710000
 C       -0.9243900000       -0.9190730000       -0.1200210000
 C       -2.0702380000        1.5566560000        0.2297440000
 C       -0.6972730000        1.4634370000        0.2128350000
 C       -0.0685300000        0.2079320000        0.0366030000
 C        1.3933160000        0.0685900000        0.0008320000
 C        2.0225220000       -1.1857260000        0.2609400000
 C        3.4187310000       -1.2936680000        0.2520130000
 N        4.1818290000       -0.2312090000       -0.0195270000
 C        2.2446410000        1.1608950000       -0.2751380000
 C        3.6115530000        0.9855070000       -0.2881700000
 H       -2.9827450000       -1.6182110000       -0.2460520000
 H       -0.5428440000       -1.9300340000       -0.2827600000
 H       -2.5848650000        2.5115120000        0.3797910000
 H       -0.1319840000        2.3843440000        0.3722840000
 H        1.4580230000       -2.0889940000        0.5051640000
 H        3.9226130000       -2.2425640000        0.4611490000
 H        4.3017500000        1.8046690000       -0.5151070000
 H        1.8651540000        2.1557170000       -0.5177850000
 C        5.6471000000       -0.3386370000       -0.0410040000
 H        5.9511930000       -1.3638180000        0.1981990000
 H        6.0683490000        0.3670860000        0.6968520000
 H        6.0122350000       -0.0547900000       -1.0439520000
 C       -4.3177880000        0.6564120000        0.0869050000
 C       -5.1094610000       -0.5331920000       -0.0880410000
 H       -4.5904300000        1.3950210000       -0.7015470000
 H       -4.5981060000        1.1417810000        1.0497040000
 N       -5.7796530000       -1.4820570000       -0.2261560000

