%nproc=8
%mem=18000mb
#P PBE1PBE DEF2TZVPP OPT FREQ SCF(tight) INT(ultrafine)

 19-dimethyl-1-9-phenanthrolinium_2c_rd

 1 2
 C        3.2511840000        0.6228930000        0.0992550000
 C        2.3961630000        1.6643590000        0.2689000000
 C        0.9879400000        1.4873440000        0.1885920000
 C        0.4858510000        0.1269390000        0.0467570000
 N        2.7537200000       -0.6397700000       -0.1793240000
 C        1.4365070000       -0.8675250000       -0.1893610000
 C        0.0982580000        2.5657680000        0.1762010000
 C       -1.2475920000        2.3466540000       -0.0223780000
 C       -1.7973010000        1.0373490000       -0.1112750000
 C       -0.9431840000       -0.0974890000        0.0376150000
 C       -3.1855770000        0.8414260000       -0.3182640000
 C       -3.7061360000       -0.4494550000       -0.3386910000
 N       -1.5306410000       -1.3319410000        0.1690430000
 C       -2.8794370000       -1.5121460000       -0.0749440000
 H        4.3362740000        0.7145770000        0.1374890000
 H        2.8034150000        2.6624640000        0.4412090000
 H        1.1606190000       -1.8866620000       -0.4472630000
 H        0.4834630000        3.5814980000        0.2857670000
 H       -1.9376420000        3.1903690000       -0.0851580000
 H       -3.2341400000       -2.5403790000       -0.0195330000
 H       -3.8291790000        1.7094430000       -0.4683850000
 H       -4.7645000000       -0.6340890000       -0.5284530000
 C        3.7059350000       -1.7028830000       -0.4746920000
 H        4.3745370000       -1.8566010000        0.3847100000
 H        4.3077140000       -1.4339950000       -1.3547370000
 H        3.1694600000       -2.6359290000       -0.6811490000
 C       -0.8377600000       -2.5023640000        0.6918700000
 H       -0.0456110000       -2.1939480000        1.3858400000
 H       -0.4153170000       -3.1306510000       -0.1079120000
 H       -1.5597670000       -3.1093330000        1.2520320000

