%nproc=8
%mem=18000mb
#P PBE1PBE DEF2TZVPP OPT FREQ SCF(tight) INT(ultrafine)

 19-dimethyl-1-9-phenanthrolinium_2c_gn

 2 1
 C       -3.2452220000        0.6646130000        0.0708840000
 C       -2.3582850000        1.6959090000        0.1962160000
 C       -0.9656210000        1.4599450000        0.1427690000
 C       -0.4950490000        0.1090590000        0.0343930000
 N       -2.7896830000       -0.6029910000       -0.1247210000
 C       -1.4837910000       -0.8775710000       -0.1389700000
 C       -0.0655690000        2.5631740000        0.1450680000
 C        1.2640500000        2.3445360000       -0.0195130000
 C        1.7969420000        1.0165780000       -0.0882980000
 C        0.9468890000       -0.1180730000        0.0196510000
 C        3.1904510000        0.8494700000       -0.2358580000
 C        3.7377360000       -0.4150050000       -0.2442020000
 N        1.5567900000       -1.3541970000        0.1167690000
 C        2.8879730000       -1.4892640000       -0.0278170000
 H       -4.3286440000        0.7991770000        0.0945410000
 H       -2.7359200000        2.7135840000        0.3152660000
 H       -1.2532400000       -1.9185950000       -0.3383560000
 H       -0.4628340000        3.5763780000        0.2343870000
 H        1.9623640000        3.1827690000       -0.0804520000
 H        3.2759680000       -2.5060810000        0.0594970000
 H        3.8260660000        1.7334880000       -0.3367330000
 H        4.8084270000       -0.5902670000       -0.3654920000
 C       -3.7823520000       -1.6716450000       -0.3309310000
 H       -4.3923890000       -1.4329660000       -1.2128160000
 H       -4.4256870000       -1.7429840000        0.5569300000
 H       -3.2701460000       -2.6266280000       -0.4892720000
 C        0.8376340000       -2.5908450000        0.4648250000
 H        0.1014350000       -2.3874140000        1.2513160000
 H        1.5608680000       -3.3107640000        0.8622540000
 H        0.3692620000       -3.0346590000       -0.4247110000

