%nproc=8
%mem=18000mb
#P PBE1PBE DEF2TZVPP OPT FREQ SCF(tight) INT(ultrafine)

 19-dimethyl-1-9-phenanthrolinium_2c_ox

 3 2
 C        3.2701300000        0.6627150000        0.0634640000
 C        2.3595020000        1.7121150000        0.2273000000
 C        0.9792740000        1.4568350000        0.1792870000
 C        0.5112780000        0.1049560000        0.0410720000
 N        2.8226660000       -0.5798700000       -0.1526760000
 C        1.4924620000       -0.8660370000       -0.1599210000
 C        0.0705770000        2.5542870000        0.1850200000
 C       -1.2983660000        2.3241230000       -0.0275370000
 C       -1.8139070000        1.0167090000       -0.1200970000
 C       -0.9464500000       -0.1271820000        0.0237380000
 C       -3.2184320000        0.8472280000       -0.2903650000
 C       -3.7542700000       -0.4237430000       -0.2783510000
 N       -1.5481650000       -1.3435300000        0.1498040000
 C       -2.8953800000       -1.4824970000       -0.0163450000
 H        4.3539650000        0.8202300000        0.0838000000
 H        2.7437270000        2.7284840000        0.3653730000
 H        1.2725750000       -1.9097880000       -0.3746510000
 H        0.4422490000        3.5783320000        0.3063250000
 H       -1.9830910000        3.1776120000       -0.0972720000
 H       -3.2786210000       -2.5031250000        0.0859830000
 H       -3.8584500000        1.7278040000       -0.4173000000
 H       -4.8234330000       -0.6147240000       -0.4151260000
 C        3.7843410000       -1.6862340000       -0.3771280000
 H        4.7940910000       -1.2718450000       -0.4782000000
 H        3.5109450000       -2.2174590000       -1.3003300000
 H        3.7507350000       -2.3711440000        0.4844920000
 C       -0.8388140000       -2.5874410000        0.5287300000
 H       -0.0690580000       -2.3649630000        1.2775690000
 H       -0.4254950000       -3.0812240000       -0.3638430000
 H       -1.5633310000       -3.2693930000        0.9900750000

