%nproc=8
%mem=18000mb
#P PBE1PBE DEF2TZVPP OPT FREQ SCF(tight) INT(ultrafine)

 47-dimethyl-4-7-phenanthrolinium_2c_ox

 3 2
 C       -3.5197010000        0.5983270000        0.0000000000
 N       -2.8291290000       -0.5314590000        0.0000070000
 C       -1.4346810000       -0.5059520000        0.0000070000
 C       -0.7367840000        0.7395800000       -0.0000000000
 C       -2.8754430000        1.8576870000       -0.0000080000
 C       -1.4865070000        1.9266760000       -0.0000080000
 C       -0.7055200000       -1.7044300000        0.0000160000
 C        0.7055190000       -1.7044310000        0.0000110000
 C        1.4346810000       -0.5059520000       -0.0000020000
 C        0.7367840000        0.7395800000       -0.0000010000
 N        2.8291290000       -0.5314600000       -0.0000110000
 C        1.4865070000        1.9266760000        0.0000030000
 C        3.5197010000        0.5983270000       -0.0000070000
 C        2.8754430000        1.8576860000        0.0000030000
 H       -3.4907560000        2.7644000000       -0.0000140000
 H       -1.0173100000        2.9128940000       -0.0000160000
 H       -4.6126390000        0.5240510000       -0.0000000000
 H       -1.2075490000       -2.6754220000        0.0000270000
 H        1.2075490000       -2.6754220000        0.0000200000
 H        1.0173100000        2.9128940000        0.0000070000
 H        3.4907560000        2.7644000000        0.0000090000
 H        4.6126390000        0.5240510000       -0.0000150000
 C       -3.5650080000       -1.8168480000        0.0000150000
 H       -4.6400450000       -1.6032620000        0.0000080000
 H       -3.3180620000       -2.3863310000        0.9078400000
 H       -3.3180540000       -2.3863470000       -0.9077980000
 C        3.5650090000       -1.8168480000       -0.0000230000
 H        3.3180930000       -2.3863270000        0.9078130000
 H        4.6400450000       -1.6032610000       -0.0000700000
 H        3.3180240000       -2.3863510000       -0.9078240000

