%nproc=8
%mem=18000mb
#P PBE1PBE DEF2TZVPP OPT FREQ SCF(tight) INT(ultrafine)

 47-dimethyl-4-7-phenanthrolinium_2c_rd

 1 2
 C       -3.5077450000        0.6346230000        0.0000010000
 N       -2.8082510000       -0.5235930000        0.0000040000
 C       -1.4174410000       -0.5296530000        0.0000030000
 C       -0.7316640000        0.7329980000       -0.0000000000
 C       -2.8853660000        1.8562990000       -0.0000030000
 C       -1.4828610000        1.9032580000       -0.0000040000
 C       -0.6997650000       -1.7248540000        0.0000060000
 C        0.6997650000       -1.7248540000        0.0000040000
 C        1.4174410000       -0.5296530000       -0.0000010000
 C        0.7316640000        0.7329990000       -0.0000000000
 N        2.8082500000       -0.5235940000       -0.0000060000
 C        1.4828610000        1.9032580000        0.0000030000
 C        3.5077450000        0.6346230000       -0.0000020000
 C        2.8853660000        1.8562990000        0.0000030000
 H       -3.4847550000        2.7663340000       -0.0000060000
 H       -0.9942360000        2.8776310000       -0.0000090000
 H       -4.5942520000        0.5361380000        0.0000020000
 H       -1.2120100000       -2.6846620000        0.0000110000
 H        1.2120100000       -2.6846620000        0.0000070000
 H        0.9942370000        2.8776310000        0.0000060000
 H        3.4847550000        2.7663330000        0.0000070000
 H        4.5942520000        0.5361380000       -0.0000040000
 C       -3.5258760000       -1.7881840000        0.0000070000
 H       -4.6029600000       -1.5896560000        0.0000050000
 H       -3.2730170000       -2.3737770000        0.8961700000
 H       -3.2730150000       -2.3737830000       -0.8961500000
 C        3.5258760000       -1.7881840000       -0.0000130000
 H        3.2730020000       -2.3737830000       -0.8961670000
 H        3.2730300000       -2.3737780000        0.8961530000
 H        4.6029600000       -1.5896560000       -0.0000310000

