%nproc=8
%mem=18000mb
#P PBE1PBE DEF2TZVPP OPT FREQ SCF(tight) INT(ultrafine)

 910-aq-2-sulfonate_a_ox

 0 2
 C       -4.9902180000       -1.2890410000        0.0001530000
 C       -5.2694480000        0.0808370000        0.0002230000
 C       -3.6723760000       -1.7335300000        0.0000280000
 C       -2.6223220000       -0.8112340000       -0.0000400000
 C       -2.9031240000        0.5672760000        0.0000520000
 C       -4.2305800000        1.0053480000        0.0001730000
 H       -5.8088070000       -2.0126610000        0.0002010000
 H       -6.3059160000        0.4264170000        0.0003110000
 H       -3.4243140000       -2.7969770000       -0.0000310000
 H       -4.4186800000        2.0809970000        0.0002400000
 C       -1.2245540000       -1.3188690000       -0.0001960000
 C       -0.1319460000       -0.3011760000       -0.0000890000
 C       -0.4088660000        1.0738810000       -0.0001810000
 C       -1.8157000000        1.5805410000        0.0000040000
 O       -0.9719370000       -2.5053420000       -0.0004310000
 O       -2.0468770000        2.7717730000        0.0002280000
 C        1.1937330000       -0.7443260000        0.0000080000
 C        2.2143580000        0.1959930000       -0.0001810000
 C        1.9551130000        1.5721280000       -0.0003320000
 C        0.6375020000        2.0037560000       -0.0003260000
 H        1.4036160000       -1.8160520000        0.0000390000
 H        0.3841260000        3.0657900000       -0.0004730000
 H        2.7804790000        2.2871790000       -0.0007000000
 S        3.8946650000       -0.3576160000        0.0002270000
 O        4.5951350000        0.3424610000        1.1327230000
 O        4.5949810000        0.3433670000       -1.1321390000
 O        3.9143730000       -1.8025510000       -0.0002550000

