%nproc=8
%mem=18000mb
#P PBE1PBE DEF2TZVPP OPT FREQ SCF(tight) INT(ultrafine)

 910-aq-2-sulfonate_a_gn

-1 1
 C        4.9705250000       -1.3197880000        0.0218390000
 C        5.2644290000        0.0474780000        0.0325970000
 C        3.6473530000       -1.7470160000        0.0029590000
 C        2.6065300000       -0.8140100000       -0.0049510000
 C        2.9013740000        0.5574420000        0.0058110000
 C        4.2336240000        0.9806690000        0.0243970000
 H        5.7813450000       -2.0531300000        0.0282400000
 H        6.3049970000        0.3826290000        0.0474070000
 H        3.3795070000       -2.8059310000       -0.0062200000
 H        4.4244370000        2.0561110000        0.0320180000
 C        1.1935200000       -1.3091260000       -0.0257250000
 C        0.1192260000       -0.2876740000       -0.0256670000
 C        0.4237280000        1.0940490000       -0.0181490000
 C        1.8156940000        1.5859060000       -0.0033200000
 O        0.9664000000       -2.5039580000       -0.0406080000
 O        2.0960590000        2.7730040000        0.0018930000
 C       -1.2127450000       -0.7046680000       -0.0409560000
 C       -2.2448650000        0.2339490000       -0.0417670000
 C       -1.9444800000        1.5986420000       -0.0462720000
 C       -0.6214330000        2.0242160000       -0.0317020000
 H       -1.4501450000       -1.7702640000       -0.0663280000
 H       -0.3610730000        3.0852490000       -0.0346460000
 H       -2.7813360000        2.3009940000       -0.0748820000
 S       -3.9757790000       -0.3136030000        0.0205480000
 O       -4.7259410000        0.8361300000       -0.5210290000
 O       -4.1739840000       -0.5582320000        1.4615830000
 O       -3.9875520000       -1.5242480000       -0.8204530000

