%nproc=8
%mem=18000mb
#P PBE1PBE DEF2TZVPP OPT FREQ SCF(tight) INT(ultrafine)

 910-aq-2-sulfonate_a_rd

-2 2
 C        4.9731390000       -1.3176190000        0.0000220000
 C        5.2645580000        0.0689810000        0.0000380000
 C        3.6577390000       -1.7404310000       -0.0000010000
 C        2.5856870000       -0.8217120000       -0.0000090000
 C        2.8796450000        0.5755990000        0.0000100000
 C        4.2317550000        0.9858380000        0.0000330000
 H        5.7886130000       -2.0493640000        0.0000250000
 H        6.3058880000        0.4101480000        0.0000570000
 H        3.3855330000       -2.7998200000       -0.0000190000
 H        4.4096970000        2.0650740000        0.0000490000
 C        1.2138170000       -1.3332730000       -0.0000480000
 C        0.1543040000       -0.3158110000       -0.0000330000
 C        0.4550220000        1.0748230000       -0.0000150000
 C        1.8283170000        1.5877730000        0.0000150000
 O        0.9739050000       -2.5569330000       -0.0000200000
 O        2.0886990000        2.8121380000       -0.0000110000
 C       -1.1998290000       -0.7265260000       -0.0000590000
 C       -2.2278270000        0.1962240000       -0.0000590000
 C       -1.9279820000        1.5760960000       -0.0000520000
 C       -0.6152340000        1.9982080000       -0.0000280000
 H       -1.4293430000       -1.7938850000       -0.0000930000
 H       -0.3478830000        3.0584570000       -0.0000260000
 H       -2.7567170000        2.2889420000       -0.0000990000
 S       -3.9696050000       -0.2988260000        0.0000250000
 O       -4.5147440000        0.3091330000       -1.2373580000
 O       -4.5143490000        0.3081240000        1.2380720000
 O       -3.9686060000       -1.7783810000       -0.0005780000

