%nproc=8
%mem=18000mb
#P PBE1PBE DEF2TZVPP OPT FREQ SCF(tight) INT(ultrafine)

 11-diethyl-3l_2c_gn

 2 1
 N        3.5227800000        0.1746110000       -0.1000000000
 C        2.8654440000       -0.9229570000        0.3077960000
 C        2.8374040000        1.2761140000       -0.4709870000
 C        1.4795680000       -0.9533410000        0.3539130000
 C        0.7415290000        0.1747540000       -0.0211870000
 C        1.4572110000        1.3085080000       -0.4388210000
 C       -0.7415290000        0.1747540000        0.0211870000
 C       -1.4795680000       -0.9533410000       -0.3539130000
 C       -2.8654440000       -0.9229570000       -0.3077960000
 N       -3.5227800000        0.1746110000        0.1000000000
 C       -2.8374040000        1.2761140000        0.4709870000
 C       -1.4572110000        1.3085080000        0.4388210000
 H       -3.4311410000        2.1324970000        0.7993440000
 H       -0.9535800000        2.2190760000        0.7690070000
 H       -0.9969760000       -1.8641640000       -0.7133720000
 H       -3.4692580000       -1.7813100000       -0.6027370000
 H        3.4311410000        2.1324970000       -0.7993440000
 H        0.9535800000        2.2190760000       -0.7690070000
 H        3.4692580000       -1.7813100000        0.6027370000
 H        0.9969760000       -1.8641640000        0.7133720000
 C        5.0182750000        0.2304820000       -0.1623730000
 C        5.7306320000       -1.0274300000        0.2630500000
 H        5.3092650000        1.0829660000        0.4702520000
 H        5.2612190000        0.4892750000       -1.2043190000
 H        5.5483700000       -1.2867660000        1.3166280000
 H        6.8101170000       -0.8419030000        0.1659040000
 H        5.4989580000       -1.8887290000       -0.3811370000
 C       -5.0182750000        0.2304820000        0.1623730000
 C       -5.7306320000       -1.0274300000       -0.2630500000
 H       -5.3092650000        1.0829660000       -0.4702520000
 H       -5.2612190000        0.4892750000        1.2043190000
 H       -5.5483700000       -1.2867660000       -1.3166280000
 H       -6.8101170000       -0.8419030000       -0.1659040000
 H       -5.4989580000       -1.8887280000        0.3811370000

