%nproc=8
%mem=18000mb
#P PBE1PBE DEF2TZVPP OPT FREQ SCF(tight) INT(ultrafine)

 i47di-1-co2et-23-ch23-5-met-6-omet_n_rd

-1 2
 C        2.7739120000       -0.8280890000       -0.1369220000
 C        3.1783680000        0.5031060000       -0.1255350000
 C        1.3913540000       -1.3080920000       -0.1724170000
 C        2.2137440000        1.5797790000       -0.0974690000
 C        0.4082970000       -0.2399380000       -0.0381330000
 C        0.8316390000        1.1273580000       -0.0473240000
 C       -1.0137220000       -0.2412750000        0.0221330000
 C       -0.3140860000        1.9051020000        0.0056570000
 N       -1.3954970000        1.0984780000        0.0483640000
 O        1.1115740000       -2.5162130000       -0.3323250000
 O        2.5091590000        2.7957320000       -0.0961920000
 C       -1.9708450000       -1.3235880000        0.0958270000
 O       -3.2605670000       -0.8650740000       -0.1112070000
 O       -1.7734540000       -2.4954580000        0.3087450000
 C       -4.2624240000       -1.8526760000       -0.0328150000
 C       -5.5970810000       -1.1963920000       -0.2992480000
 H       -4.2414880000       -2.3366460000        0.9596560000
 H       -4.0558850000       -2.6547850000       -0.7621500000
 H       -5.8129250000       -0.4176570000        0.4487380000
 H       -6.4067830000       -1.9415750000       -0.2620340000
 H       -5.6089780000       -0.7234630000       -1.2932610000
 C       -2.6448370000        1.8329760000        0.0910850000
 C       -2.1806600000        3.2537500000        0.4571450000
 H       -3.3374000000        1.3996210000        0.8238710000
 H       -3.1487410000        1.7894200000       -0.8906730000
 C       -0.7148530000        3.3380450000       -0.0073880000
 H       -2.2249460000        3.3768810000        1.5512280000
 H       -2.8272680000        4.0260320000        0.0136620000
 H       -0.0680350000        3.9546360000        0.6315730000
 H       -0.6257960000        3.7519460000       -1.0282900000
 C        4.6319790000        0.8630160000       -0.1554080000
 H        5.1193090000        0.5315580000       -1.0887780000
 H        5.1906940000        0.3888120000        0.6688640000
 H        4.7199630000        1.9561730000       -0.0775910000
 O        3.7857370000       -1.7442400000       -0.2263600000
 C        3.7446550000       -2.8645610000        0.6209830000
 H        4.6782190000       -3.4234310000        0.4480730000
 H        2.8696760000       -3.4958330000        0.4106390000
 H        3.7166190000       -2.5601460000        1.6856180000

