%nproc=8
%mem=18000mb
#P PBE1PBE DEF2TZVPP OPT FREQ SCF(tight) INT(ultrafine)

 i47di-1-co2et-23-ch23-5-met-6-omet_n_ox

 1 2
 C        2.7009090000       -0.9894690000       -0.0245850000
 C        3.1587020000        0.3208790000       -0.2740300000
 C        1.2145760000       -1.3963700000       -0.2207330000
 C        2.1834700000        1.4654440000       -0.1337990000
 C        0.3026060000       -0.2725600000       -0.0749100000
 C        0.7918370000        1.0781410000       -0.0531380000
 C       -1.0888620000       -0.2172460000        0.0241140000
 C       -0.3231900000        1.9051070000        0.0388800000
 N       -1.4169520000        1.1137980000        0.0930160000
 O        0.9874440000       -2.5502580000       -0.4459010000
 O        2.6019730000        2.6037440000       -0.1315930000
 C       -2.0723950000       -1.3295700000        0.0981430000
 O       -3.3101570000       -0.8904180000       -0.1135530000
 O       -1.7664660000       -2.4659310000        0.3244730000
 C       -4.3536230000       -1.8845350000       -0.0704320000
 C       -5.6672940000       -1.2062060000       -0.3485780000
 H       -4.3298960000       -2.3665840000        0.9191410000
 H       -4.1171380000       -2.6606950000       -0.8143480000
 H       -5.8966070000       -0.4446710000        0.4113790000
 H       -6.4749100000       -1.9519310000       -0.3317880000
 H       -5.6684210000       -0.7283400000       -1.3391210000
 C       -2.6640410000        1.8781660000        0.1769330000
 C       -2.1603420000        3.2817520000        0.5476690000
 H       -3.3379780000        1.4319210000        0.9174230000
 H       -3.1694830000        1.8354740000       -0.8004460000
 C       -0.6932270000        3.3427030000        0.0756140000
 H       -2.2024600000        3.4104690000        1.6394490000
 H       -2.7830830000        4.0678130000        0.1018300000
 H       -0.0356320000        3.9303540000        0.7308250000
 H       -0.5918470000        3.7741910000       -0.9357000000
 C        4.5113570000        0.7009130000       -0.7254050000
 H        5.1799060000       -0.1348400000       -0.9492210000
 H        4.9640490000        1.3700500000        0.0316720000
 H        4.4169090000        1.3430890000       -1.6174980000
 O        3.3940110000       -2.0110670000        0.3190850000
 C        4.7440370000       -2.0151660000        0.7991070000
 H        5.4156500000       -2.2259970000       -0.0445740000
 H        4.7920200000       -2.8428750000        1.5158910000
 H        4.9960300000       -1.0644780000        1.2847750000

