%nproc=8
%mem=18000mb
#P PBE1PBE DEF2TZVPP OPT FREQ SCF(tight) INT(ultrafine)

 3j_2c_ox

 3 2
 C        5.7585160000        0.1605180000        0.0474090000
 C        4.8639980000        0.9041900000       -0.7171750000
 C        3.4535830000        0.6786810000       -0.6234150000
 C        5.2690020000       -0.8208660000        0.9196810000
 C        3.8995070000       -1.0693670000        1.0395380000
 C        2.9661030000       -0.3236460000        0.2681450000
 C        2.5403600000        1.4141970000       -1.3895600000
 C        1.1785880000        1.1514420000       -1.2716570000
 C        0.7329720000        0.1655410000       -0.3897560000
 N        1.6065550000       -0.5506900000        0.3585870000
 C       -0.7329670000       -0.1655360000       -0.3897630000
 C       -1.1785690000       -1.1514550000       -1.2716500000
 C       -2.5403400000       -1.4142170000       -1.3895620000
 N       -1.6065610000        0.5507040000        0.3585610000
 C       -2.9661070000        0.3236520000        0.2681080000
 C       -3.4535730000       -0.6786930000       -0.6234390000
 C       -4.8639860000       -0.9042100000       -0.7172070000
 C       -5.7585150000       -0.1605290000        0.0473570000
 C       -3.8995200000        1.0693810000        1.0394810000
 C       -5.2690130000        0.8208720000        0.9196170000
 C       -1.1278980000        1.5860240000        1.2922650000
 H       -1.4488220000        1.3407270000        2.3140780000
 H       -1.5277470000        2.5670080000        0.9996550000
 H       -0.0356350000        1.6334590000        1.2664300000
 C        1.1278740000       -1.5859970000        1.2922960000
 H        1.5277280000       -2.5669850000        0.9997080000
 H        0.0356110000       -1.6334310000        1.2664400000
 H        1.4487780000       -1.3406860000        2.3141130000
 H        2.8934210000        2.1836980000       -2.0836620000
 H        0.4529440000        1.7005740000       -1.8761660000
 H       -0.4529170000       -1.7005960000       -1.8761400000
 H       -2.8933900000       -2.1837330000       -2.0836540000
 H        5.9662150000       -1.4102670000        1.5228080000
 H        3.5760900000       -1.8467320000        1.7323870000
 H        6.8341360000        0.3412670000       -0.0336330000
 H        5.2300390000        1.6735880000       -1.4040050000
 H       -3.5761120000        1.8467590000        1.7323200000
 H       -5.9662330000        1.4102790000        1.5227280000
 H       -5.2300180000       -1.6736220000       -1.4040270000
 H       -6.8341330000       -0.3412860000       -0.0336900000

