%nproc=8
%mem=18000mb
#P PBE1PBE DEF2TZVPP OPT FREQ SCF(tight) INT(ultrafine)

 910-phenanthrene-q_n_rd

-1 2
 C       -3.4571610000       -0.4687980000        0.0000000000
 C       -3.1339560000       -1.8380020000        0.0000000000
 C       -2.4445890000        0.4773080000        0.0000000000
 C       -1.0820500000        0.1115870000        0.0000000000
 C       -0.7611440000       -1.2754720000        0.0000000000
 C       -1.8069290000       -2.2225440000        0.0000000000
 H       -4.5028170000       -0.1468920000        0.0000000000
 H       -2.7181870000        1.5350040000        0.0000000000
 H       -3.9287410000       -2.5905460000        0.0000000000
 H       -1.5008560000       -3.2718320000        0.0000000000
 C        0.0000000000        1.0877660000       -0.0000000000
 C        1.3468170000        0.6262480000       -0.0000000000
 C        1.7186890000       -0.8006200000       -0.0000000000
 C        0.6200620000       -1.7917670000       -0.0000000000
 O        0.8441550000       -3.0138450000       -0.0000000000
 O        2.9113410000       -1.1488670000       -0.0000000000
 C       -0.2239400000        2.4806310000       -0.0000000000
 C        0.8210790000        3.3907750000       -0.0000000000
 C        2.1499020000        2.9287910000       -0.0000000000
 C        2.3962040000        1.5693190000       -0.0000000000
 H       -1.2479720000        2.8613270000        0.0000000000
 H        0.6081480000        4.4639400000       -0.0000000000
 H        2.9800240000        3.6421650000       -0.0000000000
 H        3.4085400000        1.1571880000       -0.0000000000

