%nproc=8
%mem=18000mb
#P PBE1PBE DEF2TZVPP OPT(calcall) FREQ SCF(tight) INT(ultrafine)

 910-phenanthrene-q_n_ox

 1 2
 C       -0.7586290000        3.3912940000        0.0000000000
 C       -2.0953920000        2.9559010000        0.0000000000
 C        0.2671650000        2.4697870000        0.0000000000
 C        0.0000000000        1.0656570000        0.0000000000
 C       -1.3748110000        0.6467340000        0.0000000000
 C       -2.3920470000        1.5831740000        0.0000000000
 H       -0.5323190000        4.4595060000        0.0000000000
 H        1.2933870000        2.8344750000        0.0000000000
 H       -2.9077410000        3.6873470000        0.0000000000
 H       -3.4245270000        1.2245710000        0.0000000000
 C        1.0614050000        0.0953350000        0.0000000000
 C        0.7670740000       -1.3114290000        0.0000000000
 C       -0.6346670000       -1.8282600000        0.0000000000
 C       -1.7642070000       -0.7956200000        0.0000000000
 O       -2.9117420000       -1.1483800000        0.0000000000
 O       -0.8833520000       -3.0027500000        0.0000000000
 C        2.4360220000        0.4869350000        0.0000000000
 C        3.4455320000       -0.4524020000        0.0000000000
 C        3.1313650000       -1.8227590000        0.0000000000
 C        1.7906720000       -2.2408950000        0.0000000000
 H        2.7074840000        1.5416530000        0.0000000000
 H        4.4892320000       -0.1314800000        0.0000000000
 H        3.9325180000       -2.5664490000        0.0000000000
 H        1.5258230000       -3.3013000000        0.0000000000

