%nproc=8
%mem=18000mb
#P PBE1PBE DEF2TZVPP OPT FREQ SCF(tight) INT(ultrafine)

 910-phenanthrene-q_n_gn

 0 1
 C       -0.7439360000        3.3989880000        0.0000000000
 C       -2.0816320000        3.0001040000        0.0000000000
 C        0.2771980000        2.4541350000        0.0000000000
 C       -0.0000000000        1.0788160000        0.0000000000
 C       -1.3578840000        0.6887790000        0.0000000000
 C       -2.3798490000        1.6449200000        0.0000000000
 H       -0.4896150000        4.4617650000        0.0000000000
 H        1.3088250000        2.8068210000        0.0000000000
 H       -2.8813900000        3.7439600000        0.0000000000
 H       -3.4099440000        1.2815310000        0.0000000000
 C        1.0770240000        0.0626490000        0.0000000000
 C        0.7664080000       -1.3155750000        0.0000000000
 C       -0.6360650000       -1.7952340000        0.0000000000
 C       -1.7553340000       -0.7391740000        0.0000000000
 O       -2.9072240000       -1.1024280000        0.0000000000
 O       -0.9318300000       -2.9662710000        0.0000000000
 C        2.4339490000        0.4191160000        0.0000000000
 C        3.4364280000       -0.5455130000        0.0000000000
 C        3.1157870000       -1.9041100000        0.0000000000
 C        1.7801920000       -2.2803770000        0.0000000000
 H        2.7262100000        1.4694630000        0.0000000000
 H        4.4826560000       -0.2299360000        0.0000000000
 H        3.9048060000       -2.6593450000        0.0000000000
 H        1.4771760000       -3.3298140000        0.0000000000

