%nproc=8
%mem=18000mb
#P PBE1PBE DEF2TZVPP OPT FREQ SCF(tight) INT(ultrafine)

 7l_n_ox

 1 2
 C        3.6128150000       -1.1797670000       -0.2049860000
 C        3.7225310000        0.2194420000       -0.3065620000
 C        2.3885310000       -1.7829570000        0.0073990000
 C        1.2258150000       -0.9951420000        0.1296950000
 C        1.3587140000        0.4136640000        0.0605160000
 C        2.5990180000        1.0176830000       -0.1575150000
 H        4.5051720000       -1.8013320000       -0.3046750000
 H        2.3095990000       -2.8716410000        0.0666210000
 H        4.6937680000        0.6791220000       -0.4996950000
 H        2.6612500000        2.1069290000       -0.2207870000
 N        0.0000000000       -1.5950370000        0.2476300000
 C       -1.2258150000       -0.9951420000        0.1296950000
 C       -1.3587140000        0.4136640000        0.0605160000
 S       -0.0000000000        1.4471160000        0.4612100000
 C       -2.3885310000       -1.7829570000        0.0073990000
 C       -3.6128150000       -1.1797670000       -0.2049860000
 C       -3.7225310000        0.2194420000       -0.3065620000
 C       -2.5990180000        1.0176830000       -0.1575150000
 H       -2.3095990000       -2.8716410000        0.0666210000
 H       -4.5051720000       -1.8013320000       -0.3046750000
 H       -2.6612500000        2.1069290000       -0.2207870000
 H       -4.6937680000        0.6791220000       -0.4996950000
 H       -0.0000000000       -2.6110570000        0.2864330000
 O        0.0000000000        2.7601540000       -0.2280880000

