%nproc=8
%mem=18000mb
#P PBE1PBE DEF2TZVPP OPT FREQ SCF(tight) INT(ultrafine)

 indigodisulfonate_2a_ox

-1 2
 C       -5.3169010000       -0.2408310000       -0.0365980000
 C       -5.0137310000       -1.6099920000       -0.0479650000
 C       -4.3015870000        0.7155120000       -0.0323980000
 C       -2.9826760000        0.2721570000       -0.0288830000
 C       -2.6849020000       -1.1099500000       -0.0327110000
 C       -3.6977830000       -2.0671860000       -0.0460800000
 H       -5.8471120000       -2.3160640000       -0.0764640000
 H       -4.5540760000        1.7782330000       -0.0431260000
 H       -3.4704250000       -3.1352310000       -0.0615430000
 S       -7.0351300000        0.2792170000        0.0387500000
 C       -1.7048940000        0.9950520000       -0.0273790000
 N       -1.3140630000       -1.2933100000       -0.0311260000
 C       -0.6746720000       -0.0905590000       -0.0273520000
 C        0.6773830000        0.0989970000       -0.0262010000
 N        1.3163410000        1.3021350000       -0.0238070000
 C        1.7078050000       -0.9860740000       -0.0291450000
 C        2.9856110000       -0.2624820000       -0.0242720000
 C        2.6872130000        1.1202940000       -0.0234170000
 C        3.6994950000        2.0771800000       -0.0324270000
 C        5.0162940000        1.6195780000       -0.0364000000
 C        5.3196390000        0.2516010000       -0.0267150000
 C        4.3033520000       -0.7057450000       -0.0293430000
 H        4.5512470000       -1.7693050000       -0.0499570000
 H        3.4723120000        3.1453380000       -0.0420300000
 H        5.8526490000        2.3223500000       -0.0621650000
 O       -7.0498700000        1.6336250000       -0.5318020000
 O       -7.3648820000        0.2125090000        1.4800570000
 O       -7.7672710000       -0.7403230000       -0.7437780000
 S        7.0370430000       -0.2734660000        0.0372010000
 O        7.3007890000       -0.4995670000        1.4743750000
 O        7.7933800000        0.8385990000       -0.5579120000
 O        7.0624880000       -1.5353100000       -0.7352060000
 H       -0.8031110000       -2.1716430000       -0.0313110000
 H        0.8043350000        2.1799420000       -0.0261760000
 O        1.4536030000       -2.1784200000       -0.0331630000
 O       -1.4495190000        2.1872970000       -0.0268430000

