%nproc=8
%mem=18000mb
#P PBE1PBE DEF2TZVPP OPT FREQ SCF(tight) INT(ultrafine)

 indigodisulfonate_2a_rd

-3 2
 C        5.3309410000       -0.2286370000        0.0384830000
 C        5.0321720000       -1.6033060000        0.0348040000
 C        4.3015110000        0.7100960000        0.0354190000
 C        2.9678480000        0.2769030000        0.0193600000
 C        2.6813920000       -1.1190770000        0.0070730000
 C        3.7166570000       -2.0616580000        0.0177890000
 H        5.8700380000       -2.3046360000        0.0673550000
 H        4.5485740000        1.7742050000        0.0579920000
 H        3.4939250000       -3.1338000000        0.0219130000
 S        7.0698760000        0.2732250000       -0.0128860000
 C        1.6829080000        0.9946870000        0.0188920000
 N        1.3251880000       -1.2958150000       -0.0033800000
 C        0.6923520000       -0.0637570000        0.0035960000
 C       -0.6923510000        0.0637560000       -0.0037540000
 N       -1.3251870000        1.2958140000        0.0032240000
 C       -1.6829090000       -0.9946880000       -0.0189670000
 C       -2.9678480000       -0.2769030000       -0.0194030000
 C       -2.6813910000        1.1190770000       -0.0071250000
 C       -3.7166570000        2.0616570000       -0.0177920000
 C       -5.0321730000        1.6033060000       -0.0347580000
 C       -5.3309420000        0.2286370000       -0.0384450000
 C       -4.3015120000       -0.7100960000       -0.0354250000
 H       -4.5485770000       -1.7742050000       -0.0579960000
 H       -3.4939250000        3.1338000000       -0.0219200000
 H       -5.8700390000        2.3046370000       -0.0672700000
 O        7.0924980000        1.6713880000        0.4793540000
 O        7.4725450000        0.1354190000       -1.4335200000
 O        7.7632400000       -0.6907490000        0.8806440000
 S       -7.0698760000       -0.2732240000        0.0129680000
 O       -7.0925100000       -1.6713880000       -0.4792680000
 O       -7.7632600000        0.6907470000       -0.8805490000
 O       -7.4725110000       -0.1354130000        1.4336110000
 H        0.7707370000       -2.1469000000       -0.0110000000
 H       -0.7707350000        2.1468970000        0.0110030000
 O       -1.4477470000       -2.2284340000       -0.0277990000
 O        1.4477460000        2.2284330000        0.0276810000

