%nproc=8
%mem=18000mb
#P PBE1PBE DEF2TZVPP OPT FREQ SCF(tight) INT(ultrafine)

 11-bis-cyanomethyl-22-dimethyl-3p_2c_ox

 3 2
 N       -3.5539900000        0.0299840000        0.0507400000
 C       -2.8736120000       -1.0762850000       -0.2768510000
 C       -1.4726640000       -1.1000880000       -0.2930550000
 C       -0.7442290000        0.0660880000        0.0178580000
 C       -2.8952830000        1.1985460000        0.3809350000
 C       -1.4849790000        1.2006700000        0.3477060000
 C        0.7442290000        0.0660870000       -0.0178660000
 C        1.4726620000       -1.1000910000        0.2930380000
 C        2.8736100000       -1.0762900000        0.2768360000
 N        3.5539900000        0.0299800000       -0.0507480000
 C        2.8952840000        1.1985450000       -0.3809360000
 C        1.4849800000        1.2006710000       -0.3477070000
 H       -3.4570570000       -1.9689210000       -0.5290060000
 H       -0.9958820000       -2.0421020000       -0.5766350000
 H       -0.9975750000        2.1379750000        0.6243260000
 H        0.9958800000       -2.0421070000        0.5766120000
 H        3.4570540000       -1.9689280000        0.5289850000
 H        0.9975770000        2.1379780000       -0.6243200000
 C       -3.6585010000        2.4013080000        0.7632490000
 H       -4.3545720000        2.7202750000       -0.0354960000
 H       -2.9875310000        3.2399340000        0.9827650000
 H       -4.2810380000        2.2217600000        1.6609050000
 C        3.6585030000        2.4013120000       -0.7632340000
 H        4.3545350000        2.7202940000        0.0355400000
 H        2.9875330000        3.2399280000       -0.9827830000
 H        4.2810820000        2.2217640000       -1.6608610000
 C       -5.0433290000        0.0162810000        0.0676410000
 C       -5.5983470000       -1.2749740000       -0.2788320000
 H       -5.4145610000        0.7766960000       -0.6438810000
 H       -5.3921950000        0.3052800000        1.0758160000
 N       -6.0409990000       -2.3128620000       -0.5570380000
 C        5.0433290000        0.0162750000       -0.0676530000
 C        5.5983460000       -1.2749750000        0.2788380000
 H        5.4145640000        0.7767000000        0.6438570000
 H        5.3921920000        0.3052590000       -1.0758320000
 N        6.0409990000       -2.3128540000        0.5570750000

