%nproc=8
%mem=18000mb
#P PBE1PBE DEF2TZVPP OPT FREQ SCF(tight) INT(ultrafine)

 11-diphenyl-3l_2c_ox

 3 2
 N        3.5344750000       -0.0000010000       -0.0000010000
 C        2.8531980000        1.1282380000        0.3315490000
 C        1.4735790000        1.1528780000        0.3352190000
 C        2.8531970000       -1.1282380000       -0.3315510000
 C        1.4735780000       -1.1528780000       -0.3352210000
 C        0.7390860000        0.0000010000       -0.0000010000
 C       -0.7390860000        0.0000020000       -0.0000020000
 C       -1.4735780000        1.1528720000       -0.3352490000
 C       -1.4735790000       -1.1528680000        0.3352460000
 C       -2.8531980000       -1.1282270000        0.3315760000
 C       -2.8531960000        1.1282330000       -0.3315790000
 N       -3.5344740000        0.0000030000       -0.0000020000
 H       -0.9865220000        2.0874300000       -0.6211670000
 H       -3.4487720000        2.0140630000       -0.5609900000
 H        3.4487740000        2.0140730000        0.5609390000
 H        0.9865250000        2.0874440000        0.6211150000
 H        3.4487720000       -2.0140740000       -0.5609410000
 H        0.9865230000       -2.0874420000       -0.6211170000
 H       -3.4487730000       -2.0140570000        0.5609860000
 H       -0.9865250000       -2.0874260000        0.6211640000
 C       -4.9687990000        0.0000030000       -0.0000060000
 C       -5.6561120000        0.6441400000       -1.0526890000
 C       -7.0373870000        0.6350970000       -1.0513510000
 C       -7.7385520000       -0.0000050000        0.0000110000
 C       -5.6561140000       -0.6441390000        1.0526890000
 C       -7.0373860000       -0.6351050000        1.0513630000
 C        4.9687990000       -0.0000010000       -0.0000020000
 C        5.6561130000        0.6441640000        1.0526730000
 C        7.0373870000        0.6351250000        1.0513420000
 C        7.7385510000       -0.0000010000        0.0000010000
 C        7.0373870000       -0.6351270000       -1.0513420000
 C        5.6561120000       -0.6441660000       -1.0526740000
 H       -5.1147290000        1.0967010000       -1.8869780000
 H       -7.5900980000        1.1015050000       -1.8706870000
 H       -8.8327220000       -0.0000020000        0.0000110000
 H       -5.1147180000       -1.0966940000        1.8869720000
 H       -7.5900870000       -1.1015190000        1.8707020000
 H        5.1147230000        1.0967420000        1.8869480000
 H        7.5900930000        1.1015560000        1.8706680000
 H        8.8327220000       -0.0000020000        0.0000010000
 H        7.5900940000       -1.1015580000       -1.8706670000
 H        5.1147230000       -1.0967450000       -1.8869500000

