%nproc=8
%mem=18000mb
#P PBE1PBE DEF2TZVPP OPT FREQ SCF(tight) INT(ultrafine)

 3-fluoro-7a_n_rd

-1 2
 C        4.0496160000        0.8375500000       -0.2929940000
 C        4.1067390000       -0.5686200000       -0.3432470000
 C        2.8281280000        1.4745330000       -0.0974950000
 C        1.6300660000        0.7548230000        0.0653750000
 C        1.6994850000       -0.6768670000        0.0555440000
 C        2.9293010000       -1.2974490000       -0.1691950000
 H        4.9564290000        1.4364170000       -0.4174950000
 H        2.7853210000        2.5701490000       -0.0693730000
 H        5.0531370000       -1.0855180000       -0.5224500000
 H        2.9526680000       -2.3922090000       -0.1897310000
 N        0.4371280000        1.4188010000        0.2669320000
 C       -0.8463010000        0.8954960000        0.1497260000
 C       -1.0121040000       -0.5184200000       -0.0537930000
 S        0.2847310000       -1.6116240000        0.5038950000
 C       -1.9579060000        1.7249660000        0.1911640000
 C       -3.2684300000        1.2266820000        0.0327950000
 C       -3.4076860000       -0.1553120000       -0.1900980000
 C       -2.3339470000       -1.0147600000       -0.2367330000
 H       -1.8070810000        2.8038970000        0.3248780000
 H       -4.1455820000        1.8732090000        0.0730070000
 H       -2.5056150000       -2.0780590000       -0.4291860000
 H        0.4983030000        2.4260470000        0.3120200000
 F       -4.6561030000       -0.6439220000       -0.4087570000

