%nproc=8
%mem=18000mb
#P PBE1PBE DEF2TZVPP OPT FREQ SCF(tight) INT(ultrafine)

 3-fluoro-7a_n_gn

 0 1
 C       -3.9671380000        0.8357730000       -0.4327340000
 C       -4.0031010000       -0.5501020000       -0.5627910000
 C       -2.7843840000        1.4765750000       -0.0707600000
 C       -1.6256730000        0.7407620000        0.2029070000
 C       -1.6723080000       -0.6601620000        0.0875360000
 C       -2.8480290000       -1.2914770000       -0.3137050000
 H       -4.8621900000        1.4312520000       -0.6266820000
 H       -2.7535740000        2.5671020000        0.0092540000
 H       -4.9236370000       -1.0574050000       -0.8581920000
 H       -2.8567310000       -2.3796760000       -0.4142030000
 N       -0.4484730000        1.3785110000        0.5767810000
 C        0.8186760000        0.8761670000        0.2897010000
 C        1.0312340000       -0.5110470000        0.1906030000
 S       -0.2769480000       -1.6374850000        0.5709470000
 C        1.9036870000        1.7357750000        0.0907580000
 C        3.1788620000        1.2417500000       -0.1771390000
 C        3.3578450000       -0.1293940000       -0.2829010000
 C        2.2955860000       -1.0106160000       -0.1157250000
 H        1.7482280000        2.8162210000        0.1561890000
 H        4.0291760000        1.9108780000       -0.3175820000
 H        2.4652530000       -2.0848430000       -0.2102460000
 H       -0.5066890000        2.3869700000        0.6265780000
 F        4.5687880000       -0.6182610000       -0.5524720000

