%nproc=8
%mem=18000mb
#P PBE1PBE DEF2TZVPP OPT FREQ SCF(tight) INT(ultrafine)

 111-dimethyl-3h_2c_rd

 1 2
 C        3.4935940000        0.1254600000        0.0669020000
 C        2.8349700000       -1.1233300000        0.1321370000
 C        2.7857070000        1.2648940000       -0.2015800000
 C        1.4318400000       -1.1300830000        0.0444770000
 N        1.4328730000        1.2654230000       -0.3240780000
 C        0.7029370000        0.1015910000       -0.0619690000
 C        0.6773350000       -2.3486150000        0.0496600000
 C       -0.6773520000       -2.3486130000       -0.0496170000
 C       -1.4318480000       -1.1300730000       -0.0445210000
 C       -0.7029340000        0.1015970000        0.0619280000
 C       -2.8349760000       -1.1233060000       -0.1321980000
 C       -3.4935940000        0.1254840000       -0.0669010000
 C       -2.7856960000        1.2649050000        0.2016080000
 N       -1.4328600000        1.2654300000        0.3240680000
 H        4.5779320000        0.1888060000        0.1639550000
 H        3.2771040000        2.2248780000       -0.3703130000
 H        1.2122170000       -3.2971300000        0.1006160000
 H       -1.2122450000       -3.2971270000       -0.1004690000
 C       -0.7781070000        2.4036400000        0.9716300000
 C        0.0000210000        3.2722970000        0.0000130000
 H       -0.1095540000        1.9938950000        1.7450430000
 H       -1.5476100000        2.9835200000        1.4974200000
 C        0.7781330000        2.4036510000       -0.9716220000
 H        0.6733330000        3.9277150000        0.5739050000
 H       -0.6732720000        3.9277520000       -0.5738580000
 H        1.5476390000        2.9835300000       -1.4974100000
 H        0.1095720000        1.9939230000       -1.7450370000
 H       -4.5779300000        0.1888420000       -0.1639580000
 H       -3.2770890000        2.2248850000        0.3703710000
 C       -3.6282820000       -2.3826090000       -0.2793650000
 H       -3.3136190000       -2.9623050000       -1.1611370000
 H       -4.6978250000       -2.1627590000       -0.3876390000
 H       -3.5109060000       -3.0373280000        0.5992920000
 C        3.6282470000       -2.3826450000        0.2793560000
 H        4.6979330000       -2.1628860000        0.3863870000
 H        3.5098610000       -3.0380290000       -0.5986550000
 H        3.3143870000       -2.9616070000        1.1619120000

