%nproc=8
%mem=18000mb
#P PBE1PBE DEF2TZVPP OPT FREQ SCF(tight) INT(ultrafine)

 111-dimethyl-3h_2c_gn

 2 1
 C        3.4966130000        0.1056020000        0.0195530000
 C        2.8498060000       -1.1153730000        0.1625180000
 C        2.7726140000        1.2434950000       -0.3071490000
 C        1.4173260000       -1.1170270000        0.0825810000
 N        1.4358100000        1.2492380000       -0.3640040000
 C        0.7193740000        0.1086630000       -0.0558700000
 C        0.6758720000       -2.3360660000        0.0854050000
 C       -0.6758720000       -2.3360670000       -0.0853900000
 C       -1.4173250000       -1.1170270000       -0.0825870000
 C       -0.7193730000        0.1086630000        0.0558650000
 C       -2.8498040000       -1.1153700000       -0.1625360000
 C       -3.4966110000        0.1056030000       -0.0195600000
 C       -2.7726130000        1.2434930000        0.3071540000
 N       -1.4358090000        1.2492360000        0.3640060000
 H        4.5845670000        0.1763840000        0.0765800000
 H        3.2723750000        2.1776470000       -0.5747770000
 H        1.2095700000       -3.2830980000        0.1700370000
 H       -1.2095730000       -3.2831000000       -0.1700000000
 C       -0.7590370000        2.4102070000        0.9890370000
 C       -0.0000030000        3.2696780000        0.0000020000
 H       -0.0871000000        1.9969520000        1.7565010000
 H       -1.5242300000        2.9892640000        1.5205240000
 C        0.7590400000        2.4102110000       -0.9890320000
 H        0.6762810000        3.9275020000        0.5673280000
 H       -0.6762940000        3.9274930000       -0.5673270000
 H        1.5242350000        2.9892730000       -1.5205110000
 H        0.0871080000        1.9969600000       -1.7565030000
 H       -4.5845650000        0.1763870000       -0.0765970000
 H       -3.2723730000        2.1776430000        0.5747890000
 C       -3.6233300000       -2.3688210000       -0.3683590000
 H       -3.2699950000       -2.9172380000       -1.2559270000
 H       -4.6929770000       -2.1615610000       -0.4933020000
 H       -3.5087980000       -3.0436280000        0.4968260000
 C        3.6233270000       -2.3688250000        0.3683510000
 H        4.6930110000       -2.1615940000        0.4930190000
 H        3.5085580000       -3.0437940000       -0.4966710000
 H        3.2701670000       -2.9170530000        1.2561090000

