%nproc=8
%mem=18000mb
#P PBE1PBE DEF2TZVPP OPT FREQ SCF(tight) INT(ultrafine)

 thioanisole_n_gn

 0 1
 C       -0.0002200000       -0.0434400000       -0.5212400000
 C        0.0004100000        1.1109400000        0.2590800000
 H        0.0005700000        2.0893000000       -0.2146000000
 C        0.0008500000        1.0310300000        1.6533500000
 H        0.0013300000        1.9451000000        2.2372600000
 C        0.0006800000       -0.2199100000        2.2830800000
 C        0.0000500000       -1.3836900000        1.4954400000
 H       -0.0000900000       -2.3584400000        1.9766900000
 C       -0.0004100000       -1.2916900000        0.1076100000
 H       -0.0009000000       -2.2020000000       -0.4861200000
 H       -0.0005700000        0.0257700000       -1.6050300000
 S        0.0011300000       -0.4573700000        4.0423300000
 C       -0.0005100000        1.2391600000        4.6973100000
 H        0.0002300000        1.1256200000        5.7838400000
 H       -0.9001100000        1.7799900000        4.3932300000
 H        0.8974500000        1.7821300000        4.3922200000

