%nproc=8
%mem=18000mb
#P PBE1PBE DEF2TZVPP OPT FREQ SCF(tight) INT(ultrafine)

 i47di-12-met-3-phenyl-5-met_n_gn

 0 1
 C       -3.3065760000       -1.1104280000        0.1271370000
 C       -2.3222560000       -2.0356410000        0.1409630000
 C       -3.0824650000        0.3514470000        0.0279780000
 C       -1.6769650000        0.7478360000       -0.0480200000
 C       -0.6149660000       -0.2037060000       -0.0475760000
 C       -0.8721100000       -1.6414280000        0.0305150000
 C       -1.1148640000        2.0109690000       -0.0897020000
 C        0.5816700000        0.5072790000       -0.0704240000
 N        0.2497170000        1.8490020000       -0.1042400000
 C       -1.7752280000        3.3399900000       -0.1256180000
 H       -2.8578800000        3.1868950000       -0.0376280000
 H       -1.5776130000        3.8715400000       -1.0721010000
 H       -1.4356500000        3.9912640000        0.6961860000
 C        1.1744220000        2.9525550000       -0.2291000000
 H        0.7908460000        3.6777910000       -0.9595750000
 H        2.1447440000        2.5823210000       -0.5789750000
 H        1.3206890000        3.4710240000        0.7316910000
 C        1.9743630000        0.0373600000       -0.0259390000
 C        2.4194440000       -0.9552700000       -0.9113340000
 C        2.8807470000        0.5556220000        0.9137780000
 C        4.1981330000        0.1063640000        0.9555540000
 C        3.7366630000       -1.4012480000       -0.8683320000
 C        4.6312060000       -0.8709900000        0.0610340000
 H        1.7193750000       -1.3827060000       -1.6296400000
 H        4.0667740000       -2.1742990000       -1.5663070000
 H        5.6642550000       -1.2257160000        0.0936140000
 H        2.5426810000        1.2994950000        1.6393810000
 H        4.8868320000        0.5148970000        1.6991070000
 C       -2.5776550000       -3.5013070000        0.2447130000
 H       -3.6511280000       -3.7207880000        0.3134140000
 H       -2.0633890000       -3.9181300000        1.1248110000
 H       -2.1519970000       -4.0266980000       -0.6242970000
 O       -4.0244500000        1.1297360000        0.0246620000
 O       -0.0142610000       -2.5073110000       -0.0004830000
 H       -4.3582590000       -1.4057370000        0.1928100000

