%nproc=8
%mem=18000mb
#P PBE1PBE DEF2TZVPP OPT FREQ SCF(tight) INT(ultrafine)

 i47di-12-met-3-phenyl-5-met_n_rd

-1 2
 C       -3.3294820000       -1.0333260000        0.1308700000
 C       -2.3269290000       -1.9946050000        0.1144270000
 C       -3.0988830000        0.3822710000        0.0622110000
 C       -1.6770920000        0.7315710000       -0.0209210000
 C       -0.6222040000       -0.2381820000       -0.0388550000
 C       -0.9163300000       -1.6705920000        0.0249030000
 C       -1.0961390000        1.9907640000       -0.0700800000
 C        0.5927440000        0.4715970000       -0.0659040000
 N        0.2638490000        1.8274750000       -0.0949010000
 C       -1.7690900000        3.3156940000       -0.1215250000
 H       -2.8460280000        3.1169690000       -0.0162710000
 H       -1.6028310000        3.8411330000       -1.0805400000
 H       -1.4369320000        3.9933730000        0.6849030000
 C        1.1657250000        2.9241510000       -0.3311230000
 H        0.6944980000        3.6515200000       -1.0080130000
 H        2.0875580000        2.5592930000       -0.8005200000
 H        1.4397130000        3.4562080000        0.5969190000
 C        1.9798580000        0.0162900000       -0.0063860000
 C        2.3907280000       -1.1555790000       -0.6773670000
 C        2.9617960000        0.7116860000        0.7327850000
 C        4.2899830000        0.2914320000        0.7600530000
 C        3.7151130000       -1.5746550000       -0.6395120000
 C        4.6818310000       -0.8513400000        0.0650850000
 H        1.6321720000       -1.7550240000       -1.1806490000
 H        3.9981890000       -2.4889560000       -1.1694820000
 H        5.7228520000       -1.1857120000        0.0863850000
 H        2.6722510000        1.5776810000        1.3316220000
 H        5.0207350000        0.8550870000        1.3482260000
 C       -2.6482050000       -3.4573770000        0.1775380000
 H       -3.7338100000       -3.6319930000        0.2301600000
 H       -2.1668900000       -3.9304410000        1.0504380000
 H       -2.2407710000       -3.9874480000       -0.7001480000
 O       -4.0147740000        1.2384170000        0.0778800000
 O       -0.0437800000       -2.5738520000       -0.0131310000
 H       -4.3797450000       -1.3393290000        0.1960840000

