%nproc=8
%mem=18000mb
#P PBE1PBE DEF2TZVPP OPT FREQ SCF(tight) INT(ultrafine)

 7h_n_rd

-1 2
 C       -4.0431030000       -1.8120790000       -0.3116470000
 C       -4.6268450000       -0.5426410000       -0.3933360000
 C       -2.6782560000       -1.9420770000       -0.0781310000
 C       -1.8466460000       -0.8182120000        0.0992490000
 C       -2.4514930000        0.4699400000        0.0407090000
 C       -3.8161030000        0.5821610000       -0.2200080000
 H       -4.6523830000       -2.7110840000       -0.4419710000
 H       -2.2250840000       -2.9380050000       -0.0276840000
 H       -5.6944850000       -0.4268730000       -0.5951150000
 H       -4.2499360000        1.5855180000       -0.2753010000
 N       -0.5049270000       -0.9702990000        0.3244410000
 C        0.4870060000        0.0092500000        0.1767730000
 C        0.1257340000        1.3730920000        0.0585150000
 S       -1.5156550000        1.9027720000        0.4681310000
 C        1.8526670000       -0.3896110000        0.1035830000
 C        2.8501260000        0.6170390000       -0.1915130000
 C        2.4366040000        1.9668520000       -0.3567900000
 C        1.0964280000        2.3303130000       -0.2123970000
 H        0.7962040000        3.3796750000       -0.2957820000
 H        3.1896410000        2.7250860000       -0.5890830000
 H       -0.1658440000       -1.9191460000        0.2503950000
 C        2.2913950000       -1.7299880000        0.2908430000
 C        4.2007990000        0.2148380000       -0.3142360000
 C        3.6404330000       -2.0877630000        0.1528370000
 C        4.5936910000       -1.1222160000       -0.1533990000
 H        4.9469960000        0.9814410000       -0.5467420000
 H        5.6466740000       -1.4001910000       -0.2632060000
 H        1.5809460000       -2.5103400000        0.5815010000
 H        3.9376170000       -3.1317210000        0.2955070000

