%nproc=8
%mem=18000mb
#P PBE1PBE DEF2TZVPP OPT FREQ SCF(tight) INT(ultrafine)

 11-bis-2-aminoethyl-3l_2c_gn

 2 1
 N       -3.5133940000       -0.5583640000       -0.0742930000
 C       -2.9199980000        0.2643180000       -0.9624900000
 C       -2.7713090000       -1.3102790000        0.7646400000
 C       -1.5376530000        0.3471570000       -1.0362690000
 C       -0.7406630000       -0.4325290000       -0.1910330000
 C       -1.3919480000       -1.2757260000        0.7250530000
 C        0.7390480000       -0.3830680000       -0.2701870000
 C        1.4131810000        0.8176880000       -0.5184120000
 C        2.7967510000        0.8342820000       -0.6081070000
 N        3.5092370000       -0.3013090000       -0.4628950000
 C        2.8879530000       -1.4724200000       -0.2130870000
 C        1.5130990000       -1.5448430000       -0.1117120000
 H        3.5253070000       -2.3528640000       -0.1098040000
 H        1.0569760000       -2.5218620000        0.0570800000
 H        0.8789350000        1.7627080000       -0.6309810000
 H        3.3658370000        1.7453950000       -0.7847970000
 H       -3.3168220000       -1.9441110000        1.4666010000
 H       -0.8375640000       -1.8975440000        1.4300170000
 H       -3.5792670000        0.8433420000       -1.6064290000
 H       -1.1018300000        1.0021200000       -1.7926900000
 C       -4.9815290000       -0.5517740000        0.0369870000
 C       -5.4738730000        0.6983760000        0.7779360000
 H       -5.2869150000       -1.4687490000        0.5573760000
 H       -5.3906940000       -0.5899390000       -0.9828700000
 N       -5.0823600000        1.9001960000        0.0867200000
 H       -5.0466610000        0.6961290000        1.7933910000
 H       -6.5648550000        0.5698230000        0.9049240000
 C        4.9800180000       -0.2313790000       -0.4853970000
 C        5.5281910000        0.3562120000        0.8218350000
 H        5.2686680000        0.3899550000       -1.3453940000
 H        5.3647050000       -1.2449420000       -0.6573370000
 N        5.0412390000        1.6950620000        1.0357520000
 H        5.2172830000       -0.2922650000        1.6563670000
 H        6.6286680000        0.2673290000        0.7593970000
 H       -5.7881750000        2.2053280000       -0.5816220000
 H       -4.9248650000        2.6752990000        0.7254630000
 H        4.9354090000        1.9118660000        2.0233440000
 H        5.6651990000        2.3978020000        0.6424440000

