%nproc=8
%mem=18000mb
#P PBE1PBE DEF2TZVPP OPT FREQ SCF(tight) INT(ultrafine)

 49-dimethyl-3c_2c_gn

 2 1
 C        3.4948020000        0.6732820000        0.1870640000
 C        2.8233360000        1.8564480000        0.4510640000
 C        1.4291410000        1.8833180000        0.3877730000
 C        2.7888680000       -0.4954630000       -0.1122310000
 N        1.4287840000       -0.4362280000       -0.1394730000
 C        0.7368860000        0.7252380000        0.0692390000
 C       -0.7368870000        0.7252350000       -0.0692580000
 N       -1.4287810000       -0.4362320000        0.1394600000
 C        0.6256850000       -1.6346590000       -0.4211260000
 C       -0.6256810000       -1.6346660000        0.4210950000
 H        1.2118280000       -2.5274820000       -0.1796610000
 H        0.3923430000       -1.6630370000       -1.4989040000
 H       -0.3923440000       -1.6630670000        1.4988730000
 H       -1.2118240000       -2.5274850000        0.1796100000
 C       -1.4291470000        1.8833140000       -0.3877870000
 C       -2.8233430000        1.8564450000       -0.4510550000
 C       -3.4948060000        0.6732800000       -0.1870380000
 C       -2.7888660000       -0.4954660000        0.1122430000
 H        4.5851950000        0.6302090000        0.2168290000
 H       -4.5851990000        0.6302080000       -0.2167820000
 H        0.8878990000        2.8034670000        0.6082820000
 H       -0.8879080000        2.8034620000       -0.6083060000
 H       -3.3780500000        2.7632380000       -0.7060010000
 H        3.3780380000        2.7632430000        0.7060160000
 C       -3.4904110000       -1.7769300000        0.4000880000
 H       -3.1996510000       -2.1970160000        1.3757090000
 H       -3.2921910000       -2.5353730000       -0.3763380000
 H       -4.5735500000       -1.6077320000        0.4182310000
 C        3.4904190000       -1.7769270000       -0.4000640000
 H        4.5735570000       -1.6077200000       -0.4182200000
 H        3.1996540000       -2.1970350000       -1.3756740000
 H        3.2922110000       -2.5353540000        0.3763800000

