%nproc=8
%mem=18000mb
#P PBE1PBE DEF2TZVPP OPT FREQ SCF(tight) INT(ultrafine)

 22-bipyridine_2c_ox

 3 2
 C        0.2922960000        2.8740760000        1.1869750000
 C        0.0214820000        3.5360800000       -0.0083310000
 C        0.2554800000        1.4739960000        1.2168070000
 C       -0.0214820000        0.7250270000        0.0394070000
 C       -0.3044910000        2.7679370000       -1.1598490000
 N       -0.3008190000        1.4330340000       -1.1065490000
 C        0.0214820000       -0.7250270000        0.0394070000
 C       -0.2554800000       -1.4739960000        1.2168070000
 C       -0.2922960000       -2.8740760000        1.1869750000
 C       -0.0214820000       -3.5360800000       -0.0083310000
 N        0.3008190000       -1.4330340000       -1.1065490000
 C        0.3044910000       -2.7679370000       -1.1598490000
 H        0.5337690000        3.4366080000        2.0975930000
 H        0.4981580000        0.9571250000        2.1501310000
 H        0.0315970000        4.6314890000       -0.0849930000
 H       -0.5867780000        3.2336160000       -2.1147120000
 H       -0.4981580000       -0.9571250000        2.1501310000
 H       -0.5337690000       -3.4366080000        2.0975930000
 H        0.5867780000       -3.2336160000       -2.1147120000
 H       -0.0315970000       -4.6314890000       -0.0849930000
 H       -0.6230270000        0.9506590000       -1.9522290000
 H        0.6230270000       -0.9506590000       -1.9522290000

