%nproc=8
%mem=18000mb
#P PBE1PBE DEF2TZVPP OPT FREQ SCF(tight) INT(ultrafine)

 22-bipyridine_2c_rd

 1 2
 C        0.1435960000        2.8828810000        1.1740220000
 C       -0.0291510000        3.5248160000       -0.0824660000
 C        0.1392400000        1.5113860000        1.2576460000
 C       -0.0303900000        0.7112820000        0.1017060000
 C       -0.2241460000        2.7484110000       -1.1868640000
 N       -0.2241460000        1.3891030000       -1.0881740000
 C        0.0303900000       -0.7112820000        0.1017060000
 C       -0.1392400000       -1.5113860000        1.2576460000
 C       -0.1435960000       -2.8828810000        1.1740220000
 C        0.0291510000       -3.5248160000       -0.0824660000
 N        0.2241460000       -1.3891030000       -1.0881740000
 C        0.2241460000       -2.7484110000       -1.1868640000
 H        0.2940920000        3.4804020000        2.0751530000
 H        0.3098770000        1.0242960000        2.2174870000
 H       -0.0172020000        4.6107600000       -0.1754870000
 H       -0.3960010000        3.1557620000       -2.1846670000
 H       -0.3098770000       -1.0242960000        2.2174870000
 H       -0.2940920000       -3.4804020000        2.0751530000
 H        0.3960010000       -3.1557620000       -2.1846670000
 H        0.0172020000       -4.6107600000       -0.1754870000
 H       -0.5451760000        0.8718120000       -1.8995330000
 H        0.5451760000       -0.8718120000       -1.8995330000

