%nproc=8
%mem=18000mb
#P PBE1PBE DEF2TZVPP OPT FREQ SCF(tight) INT(ultrafine)

 3-methyl-7a_n_rd

-1 2
 C       -4.1040350000        0.7930080000        0.2416700000
 C       -4.1236080000       -0.6171920000        0.3651840000
 C       -2.8957410000        1.4495520000        0.0288420000
 C       -1.6770790000        0.7563740000       -0.0687450000
 C       -1.7075740000       -0.6811280000        0.0011220000
 C       -2.9268510000       -1.3210640000        0.2349280000
 H       -5.0284490000        1.3727650000        0.3173520000
 H       -2.8802190000        2.5438970000       -0.0551130000
 H       -5.0564790000       -1.1497800000        0.5687660000
 H       -2.9266320000       -2.4153670000        0.2987470000
 N       -0.4855140000        1.4347970000       -0.2227940000
 C        0.7974520000        0.9223510000       -0.1448330000
 C        1.0174780000       -0.4961480000       -0.0531740000
 S       -0.2868450000       -1.6105160000       -0.4764000000
 C        1.9154420000        1.7642720000       -0.1309470000
 C        3.2116670000        1.2745010000        0.0167160000
 C        3.4360610000       -0.1252710000        0.1644520000
 C        2.3263320000       -0.9667190000        0.1155210000
 H        1.7547960000        2.8465770000       -0.2240540000
 H        4.0560690000        1.9706210000        0.0251120000
 H        2.4731850000       -2.0511370000        0.1977860000
 H       -0.5545500000        2.4423060000       -0.2487590000
 C        4.8201620000       -0.6573090000        0.3883400000
 H        5.5205770000       -0.3455370000       -0.4106930000
 H        4.8265500000       -1.7586650000        0.4188050000
 H        5.2650390000       -0.3023560000        1.3395590000

