%nproc=8
%mem=18000mb
#P PBE1PBE DEF2TZVPP OPT FREQ SCF(tight) INT(ultrafine)

 10-benzoylpheno-7b_n_ox

 1 2
 C       -0.6489830000       -3.6521770000        0.4208470000
 C       -1.9398320000       -3.7651210000       -0.1228530000
 C       -0.0782090000       -2.4142450000        0.6353470000
 C       -0.7793790000       -1.2303920000        0.3123060000
 C       -2.0845850000       -1.3555440000       -0.2327770000
 C       -2.6490950000       -2.6244960000       -0.4447850000
 H       -0.0874720000       -4.5509900000        0.6833700000
 H        0.9198430000       -2.3563940000        1.0700320000
 H       -2.3844930000       -4.7483860000       -0.2872620000
 H       -3.6559190000       -2.6971300000       -0.8635470000
 N       -0.1904580000        0.0000090000        0.5218390000
 C       -0.7794080000        1.2303920000        0.3122770000
 C       -2.0846170000        1.3555010000       -0.2328080000
 S       -3.0620510000       -0.0000380000       -0.6739330000
 C       -0.0782670000        2.4142670000        0.6352970000
 C       -0.6490710000        3.6521810000        0.4207720000
 C       -1.9399210000        3.7650840000       -0.1229320000
 C       -2.6491580000        2.6244350000       -0.4448420000
 H        0.9197850000        2.3564480000        1.0699850000
 H       -0.0875820000        4.5510130000        0.6832790000
 H       -3.6559830000        2.6970370000       -0.8636050000
 H       -2.3846060000        4.7483350000       -0.2873610000
 C        1.1701730000        0.0000330000        1.1544440000
 C        2.2996920000        0.0000160000        0.2209680000
 C        3.5911450000        0.0000860000        0.7776860000
 C        2.1352370000       -0.0000670000       -1.1742060000
 C        3.2527600000       -0.0000820000       -2.0004300000
 C        4.5324560000       -0.0000130000       -1.4419030000
 C        4.7017040000        0.0000710000       -0.0547630000
 H        5.7055870000        0.0001240000        0.3749310000
 H        3.6994810000        0.0001500000        1.8644440000
 H        1.1370030000       -0.0001220000       -1.6169440000
 H        3.1288080000       -0.0001470000       -3.0852200000
 H        5.4082590000       -0.0000240000       -2.0952920000
 O        1.2159340000        0.0001320000        2.3471730000

