%nproc=8
%mem=18000mb
#P PBE1PBE DEF2TZVPP OPT FREQ SCF(tight) INT(ultrafine)

 i47di-2-met-3-phenyl_n_gn

 0 1
 C       -3.5634300000       -1.2671090000        0.1937720000
 C       -2.5261660000       -2.1213340000        0.2509930000
 C       -3.3898500000        0.2018870000        0.0292300000
 H       -4.5988570000       -1.6116990000        0.2672180000
 C       -1.0950880000       -1.7095930000        0.1335900000
 H       -2.6759960000       -3.1981790000        0.3711050000
 C       -0.8867380000       -0.2654470000       -0.0081140000
 C       -1.9928050000        0.6334820000       -0.0539450000
 C       -1.4802940000        1.9061790000       -0.1595900000
 N       -0.1184030000        1.8202620000       -0.1684810000
 C        0.2773550000        0.5007740000       -0.0696010000
 H       -1.9942980000        2.8619090000       -0.2370550000
 C        0.7452410000        2.9699680000       -0.3286690000
 H        1.6758060000        2.6721440000       -0.8270030000
 H        0.9956010000        3.4290130000        0.6400460000
 H        0.2343490000        3.7173790000       -0.9498310000
 C        1.6907370000        0.0984570000       -0.0237860000
 C        2.1598450000       -0.9354730000       -0.8477420000
 C        2.5933580000        0.7224240000        0.8527350000
 C        3.9304060000        0.3355230000        0.8916660000
 C        3.4965930000       -1.3187390000       -0.8076010000
 C        4.3869940000       -0.6837050000        0.0578080000
 H        1.4642420000       -1.4448680000       -1.5149770000
 H        3.8453060000       -2.1251030000       -1.4570800000
 H        5.4356200000       -0.9894670000        0.0885790000
 H        4.6164780000        0.8262010000        1.5863120000
 H        2.2396170000        1.4990210000        1.5347200000
 O       -4.3442440000        0.9553950000       -0.0191170000
 O       -0.2165050000       -2.5531390000        0.1457250000

