%nproc=8
%mem=18000mb
#P PBE1PBE DEF2TZVPP OPT FREQ SCF(tight) INT(ultrafine)

 i47di-2-met-3-phenyl_n_ox

 1 2
 C        3.5878080000       -1.2554910000       -0.1636530000
 C        2.5581840000       -2.1209090000       -0.2164280000
 C        3.3803870000        0.2028330000       -0.0223650000
 H        4.6270150000       -1.5889470000       -0.2257840000
 C        1.1286220000       -1.7237040000       -0.1323860000
 H        2.7185240000       -3.1967190000       -0.3268820000
 C        0.8881430000       -0.2656290000        0.0471060000
 C        1.9587640000        0.6115410000        0.0574560000
 C        1.4374820000        1.9167780000        0.1257550000
 N        0.0912970000        1.8559570000        0.1182450000
 C       -0.3175210000        0.5263640000        0.0752550000
 H        1.9758460000        2.8630110000        0.1911830000
 C       -0.7446470000        3.0387710000        0.2880420000
 H       -1.6223630000        2.7924920000        0.8971190000
 H       -1.0670190000        3.4381030000       -0.6834270000
 H       -0.1590990000        3.8058270000        0.8089590000
 C       -1.6859230000        0.1067260000        0.0296400000
 C       -2.0725090000       -1.1019670000        0.6741570000
 C       -2.6778760000        0.8611720000       -0.6574250000
 C       -3.9849830000        0.4199180000       -0.6996890000
 C       -3.3933160000       -1.5134520000        0.6531870000
 C       -4.3510790000       -0.7622850000       -0.0348460000
 H       -1.3317620000       -1.6890650000        1.2124600000
 H       -3.6832650000       -2.4286000000        1.1729190000
 H       -5.3904430000       -1.0988380000       -0.0623750000
 H       -4.7324930000        0.9837270000       -1.2613960000
 H       -2.4025080000        1.7543230000       -1.2176000000
 O        4.2780430000        1.0120570000        0.0244580000
 O        0.2418660000       -2.5459340000       -0.2089240000

