%nproc=8
%mem=18000mb
#P PBE1PBE DEF2TZVPP OPT FREQ SCF(tight) INT(ultrafine)

 14-nq-6-ch2cl_n_gn

 0 1
 C        1.3469540000       -1.1979210000        0.2944800000
 C        1.6096890000        0.1800760000        0.3004370000
 C        0.0460900000       -1.6711690000        0.1821790000
 C       -1.0205760000       -0.7758710000        0.0711090000
 C       -0.7668620000        0.6042980000        0.0707550000
 C        0.5432510000        1.0718900000        0.1824800000
 C       -2.4105840000       -1.2951590000       -0.0512200000
 C       -3.4939530000       -0.2898680000       -0.1730750000
 C       -3.2515020000        1.0310230000       -0.1750830000
 C       -1.8819430000        1.5849110000       -0.0550570000
 H        2.1821630000       -1.8989880000        0.3620900000
 H       -0.1731340000       -2.7411120000        0.1755360000
 H        0.7014390000        2.1536060000        0.1717150000
 H       -4.5041880000       -0.6984210000       -0.2614360000
 H       -4.0504480000        1.7718390000       -0.2652320000
 C        3.0028380000        0.7121460000        0.4821210000
Cl        4.2317640000       -0.1839940000       -0.4577180000
 H        3.3100220000        0.6447700000        1.5367600000
 H        3.0610640000        1.7648840000        0.1770030000
 O       -2.6602790000       -2.4836590000       -0.0521200000
 O       -1.6906350000        2.7843070000       -0.0591290000

