%nproc=8
%mem=18000mb
#P PBE1PBE DEF2TZVPP OPT FREQ SCF(tight) INT(ultrafine)

 14-nq-6-ch2cl_n_ox

 1 2
 C        0.8702590000       -2.0169080000       -0.1005720000
 C        1.5818950000       -0.7878420000       -0.1350330000
 C       -0.5023350000       -2.0235210000       -0.0116680000
 C       -1.2045040000       -0.7903850000       -0.0092880000
 C       -0.5120120000        0.4385980000       -0.0136740000
 C        0.8642930000        0.4399640000       -0.1216940000
 C       -2.6986870000       -0.7946870000        0.0447490000
 C       -3.4024200000        0.4988210000       -0.0628310000
 C       -2.7346900000        1.6639360000       -0.0963060000
 C       -1.2547710000        1.7440520000       -0.0187300000
 H        1.4198530000       -2.9613790000       -0.1355590000
 H       -1.0728220000       -2.9546450000        0.0192910000
 H        1.3935970000        1.3954270000       -0.1873260000
 H       -4.4940950000        0.4458450000       -0.0664040000
 H       -3.2545970000        2.6238920000       -0.1639640000
 C        3.0648420000       -0.8284480000       -0.2016090000
Cl        3.8968590000        0.6647120000        0.1990620000
 H        3.3491640000       -1.1151140000       -1.2358970000
 H        3.4598120000       -1.6351560000        0.4407610000
 O       -3.2695820000       -1.8392140000        0.2724170000
 O       -0.6652600000        2.7941580000        0.0157060000

