%nproc=8
%mem=18000mb
#P PBE1PBE DEF2TZVPP OPT FREQ SCF(tight) INT(ultrafine)

 10-carboxaldehyde-7b_n_gn

 0 1
 C       -3.5267040000        0.6659470000       -0.8559250000
 C       -3.7382180000       -0.6746470000       -0.5405670000
 C       -2.2762150000        1.2435320000       -0.6449200000
 C       -1.2416600000        0.4976860000       -0.0731700000
 C       -1.4509830000       -0.8581000000        0.2200540000
 C       -2.6959170000       -1.4406810000       -0.0237360000
 H       -4.3315140000        1.2645610000       -1.2878850000
 H       -2.0953480000        2.2821340000       -0.9296890000
 H       -4.7127500000       -1.1352150000       -0.7168280000
 H       -2.8416460000       -2.5006880000        0.1971200000
 N        0.0144560000        1.0890540000        0.2101890000
 C        1.1966880000        0.3619090000       -0.0964800000
 C        1.2331150000       -1.0128830000        0.1780210000
 S       -0.1504750000       -1.8087340000        0.9397270000
 C        2.3131320000        0.9814450000       -0.6631310000
 C        3.4632320000        0.2400850000       -0.9221970000
 C        3.5002700000       -1.1251210000       -0.6444960000
 C        2.3808730000       -1.7546150000       -0.1073680000
 H        2.2838250000        2.0504430000       -0.8678270000
 H        4.3363200000        0.7377190000       -1.3498700000
 H        2.3887110000       -2.8278470000        0.0966810000
 H        4.4002450000       -1.7072880000       -0.8548500000
 C        0.0642460000        2.3308210000        0.8174160000
 O        1.0627830000        2.9681540000        1.0299540000
 H       -0.9548530000        2.6750550000        1.1055450000

