%nproc=8
%mem=18000mb
#P PBE1PBE DEF2TZVPP OPT FREQ SCF(tight) INT(ultrafine)

 3-iodo-7a_n_gn

 0 1
 C        5.5542360000        0.4841280000       -0.6607670000
 C        5.4357750000       -0.9024950000       -0.7026380000
 C        4.4730830000        1.2689140000       -0.2656610000
 C        3.2670710000        0.6791610000        0.1282030000
 C        3.1578100000       -0.7223490000        0.1011270000
 C        4.2303410000       -1.4991590000       -0.3328270000
 H        6.4905360000        0.9668540000       -0.9497580000
 H        4.5615440000        2.3591500000       -0.2546500000
 H        6.2752580000       -1.5227990000       -1.0228120000
 H        4.1186530000       -2.5858330000       -0.3633250000
 N        2.1909160000        1.4647090000        0.5302770000
 C        0.8640100000        1.0889180000        0.3728310000
 C        0.4997170000       -0.2701860000        0.3714300000
 S        1.7056650000       -1.5118680000        0.7353000000
 C       -0.1391390000        2.0496100000        0.2063490000
 C       -1.4746950000        1.6824090000        0.0596800000
 C       -1.8155990000        0.3326880000        0.0405710000
 C       -0.8292280000       -0.6444690000        0.1820630000
 H        0.1305390000        3.1095550000        0.1989560000
 H       -2.2392420000        2.4527900000       -0.0523400000
 H       -1.0868790000       -1.7052200000        0.1644250000
 H        2.3595340000        2.4619450000        0.5143770000
 I       -3.8222130000       -0.2430670000       -0.2021470000

