%nproc=8
%mem=18000mb
#P PBE1PBE DEF2TZVPP OPT FREQ SCF(tight) INT(ultrafine)

 3-iodo-7a_n_rd

-1 2
 C       -5.7925330000        0.4032960000       -0.7402330000
 C       -5.6461850000       -0.9813600000       -0.7649330000
 C       -4.7342170000        1.2127610000       -0.3314040000
 C       -3.5193450000        0.6571970000        0.0973370000
 C       -3.3826980000       -0.7493320000        0.0909410000
 C       -4.4337780000       -1.5456150000       -0.3617050000
 H       -6.7315570000        0.8657780000       -1.0556010000
 H       -4.8438310000        2.3017180000       -0.3342310000
 H       -6.4650120000       -1.6234060000       -1.0977070000
 H       -4.2960500000       -2.6300920000       -0.3784300000
 N       -2.4804890000        1.4575800000        0.5265870000
 C       -1.1233370000        1.1044400000        0.3951100000
 C       -0.7260450000       -0.2387890000        0.4316120000
 S       -1.9386090000       -1.4971990000        0.7797860000
 C       -0.1496650000        2.0895670000        0.2055750000
 C        1.1997420000        1.7396320000        0.0879820000
 C        1.5821070000        0.4054310000        0.1151240000
 C        0.6203730000       -0.5852210000        0.2689930000
 H       -0.4618820000        3.1409270000        0.1591750000
 H        1.9531470000        2.5261610000       -0.0356870000
 H        0.9048370000       -1.6442440000        0.2773530000
 H       -2.6548570000        2.4516590000        0.4608850000
 I        4.2945260000       -0.2397810000       -0.2099020000

