32
 energy:      -651.5046992210
 N       -2.7138290000        0.4233290000       -0.2608550000
 C       -1.9391740000        1.4952460000       -0.4769800000
 C       -0.5672350000        1.4051960000       -0.4081340000
 C       -2.1666230000       -0.7659550000        0.0250300000
 C       -0.8001580000       -0.9179420000        0.0941420000
 C        0.0320580000        0.1798490000       -0.1205120000
 C        1.5034550000        0.0495510000       -0.0429340000
 C        2.2857320000        1.0457300000        0.5401920000
 C        3.6524230000        0.8985280000        0.5977880000
 N        4.2521320000       -0.1903670000        0.0927200000
 C        2.1548320000       -1.0723690000       -0.5542020000
 C        3.5254300000       -1.1639900000       -0.4768750000
 H       -2.4470060000        2.4221410000       -0.7087160000
 H        0.0172750000        2.2941860000       -0.6052780000
 H       -2.8616150000       -1.5761710000        0.2065060000
 H       -0.4032690000       -1.8928390000        0.3451240000
 H        1.8461680000        1.9335500000        0.9753070000
 H        4.2972810000        1.6413430000        1.0482970000
 H        4.0731810000       -2.0099990000       -0.8702740000
 H        1.6134380000       -1.8720470000       -1.0422350000
 C        5.7143900000       -0.3347470000        0.1976630000
 H        6.1722670000        0.6508120000        0.1739710000
 H        6.0751280000       -0.9240360000       -0.6414480000
 H        5.9567300000       -0.8351380000        1.1352120000
 C       -4.2056000000        0.5433090000       -0.3778820000
 C       -4.9253350000       -0.2111430000        0.6849150000
 H       -4.4194190000        1.6119660000       -0.3288390000
 H       -4.4722920000        0.1838990000       -1.3737560000
 C       -5.7844510000       -1.1836590000        0.4114450000
 H       -4.7677620000        0.1168650000        1.7085600000
 H       -5.9831260000       -1.5061980000       -0.6054180000
 H       -6.3435550000       -1.6746750000        1.1979860000
