32
 energy:      -742.7750498060
 N        2.4170270000        0.1140180000       -0.7339690000
 C        1.8169350000       -1.0392590000       -0.3977250000
 C        0.4519170000       -1.0940200000       -0.2175560000
 C        1.7033840000        1.2434550000       -0.8756530000
 C        0.3423100000        1.2454940000       -0.6951540000
 C       -0.3126790000        0.0597150000       -0.3552880000
 C       -1.7756340000        0.0315710000       -0.1423740000
 C       -2.5491090000       -1.0402890000       -0.5868430000
 C       -3.9069220000       -1.0434230000       -0.3670370000
 N       -4.5049880000       -0.0302460000        0.2784850000
 C       -2.4262590000        1.0721360000        0.5195640000
 C       -3.7861680000        1.0134250000        0.7193180000
 H        2.4507050000       -1.9061700000       -0.2887410000
 H        0.0112600000       -2.0407730000        0.0647830000
 H        2.2532790000        2.1368200000       -1.1384790000
 H       -0.1953070000        2.1724670000       -0.8432450000
 H       -2.1133970000       -1.8717850000       -1.1248330000
 H       -4.5468260000       -1.8494970000       -0.7006700000
 H       -4.3301520000        1.7912910000        1.2383580000
 H       -1.8851490000        1.9221080000        0.9138280000
 C       -5.9650280000       -0.0479830000        0.4714040000
 H       -6.2976700000       -1.0773310000        0.5784900000
 H       -6.4447990000        0.4100130000       -0.3935310000
 H       -6.2121840000        0.5096460000        1.3710200000
 C        3.8749780000        0.1412640000       -0.7973290000
 C        4.4318320000       -0.1523950000        0.6173290000
 H        4.1949180000        1.1081840000       -1.1807600000
 H        4.2159770000       -0.6345570000       -1.4854530000
 N        5.7158320000        0.1611530000        0.7863460000
 O        3.7089320000       -0.6552750000        1.4476210000
 H        6.2823000000        0.5777530000        0.0682310000
 H        6.1531320000       -0.0585770000        1.6680570000
