27
 energy:     -1029.5485509400
 C       -3.5640950000        1.7033200000        0.3390190000
 C       -4.0966210000        0.4334260000        0.4947840000
 C       -2.2302960000        1.8635180000       -0.0015420000
 C       -1.4161860000        0.7571940000       -0.2249360000
 C       -1.9610310000       -0.5225350000       -0.0852960000
 C       -3.2856390000       -0.6749680000        0.2965020000
 H       -4.1832710000        2.5783670000        0.4943110000
 H       -1.8089770000        2.8581030000       -0.1037050000
 H       -5.1346810000        0.3013020000        0.7720080000
 H       -3.6851390000       -1.6747980000        0.4198630000
 N       -0.0861090000        0.9197070000       -0.5946690000
 C        0.8895780000        0.0019960000       -0.2247040000
 C        0.6070500000       -1.3509630000       -0.0870020000
 S       -1.0005290000       -1.9412280000       -0.4919260000
 C        2.1979810000        0.4496740000        0.0076610000
 C        3.1964780000       -0.4475620000        0.3518870000
 C        2.8911550000       -1.7961760000        0.4959030000
 C        1.6007010000       -2.2472220000        0.2927160000
 H        4.2075590000       -0.1036620000        0.5196040000
 H        1.3550130000       -3.2951240000        0.4108470000
 H        0.2449660000        1.8708890000       -0.5988520000
 H        3.6713050000       -2.4941400000        0.7720270000
 O        2.3734570000        1.7889160000       -0.1473200000
 C        3.6655460000        2.3099120000        0.0503900000
 H        3.5929960000        3.3819000000       -0.1208120000
 H        4.3806230000        1.8794120000       -0.6570400000
 H        4.0154440000        2.1304290000        1.0715150000
