34
 energy:      -727.6926204770
 C        3.0748790000        1.0429140000        0.0832560000
 C        2.8731610000       -0.3202950000        0.1698510000
 C        2.0222770000        1.8817250000       -0.2267960000
 C        1.5331940000       -0.7986830000        0.0525050000
 N        0.7668300000        1.4448030000       -0.3157410000
 C        0.4731860000        0.1232870000       -0.0661800000
 C        1.2534760000       -2.1930260000       -0.0019830000
 C       -0.0057970000       -2.6437840000       -0.2088600000
 C       -1.1037240000       -1.7428130000       -0.1866910000
 C       -0.8742710000       -0.3645260000       -0.0009630000
 C       -2.4306030000       -2.2048730000       -0.2856430000
 C       -3.4781890000       -1.3339660000       -0.1343730000
 C       -3.1970450000       -0.0262300000        0.2327410000
 N       -1.9497210000        0.4351690000        0.3155770000
 H        4.0666080000        1.4668200000        0.1708610000
 H        2.1801420000        2.9285980000       -0.4534730000
 H        2.0739360000       -2.8936550000        0.0681440000
 H       -0.2040130000       -3.7007050000       -0.3376200000
 C       -1.7270180000        1.7384400000        0.9862660000
 C       -1.2843790000        2.8346880000        0.0441530000
 H       -0.9770010000        1.5551290000        1.7574140000
 H       -2.6514200000        2.0015660000        1.4954300000
 C       -0.2486970000        2.3271800000       -0.9339310000
 H       -0.8941380000        3.6568560000        0.6472120000
 H       -2.1246770000        3.2316620000       -0.5287070000
 H        0.2831650000        3.1487250000       -1.4086810000
 H       -0.7125480000        1.7445810000       -1.7317470000
 H       -4.5088100000       -1.6533260000       -0.2111280000
 H       -3.9799320000        0.6654560000        0.5166070000
 H       -2.6096690000       -3.2590510000       -0.4646520000
 C        4.0178990000       -1.2468850000        0.3567100000
 H        4.9442540000       -0.6993820000        0.5148700000
 H        4.1475120000       -1.8826730000       -0.5245810000
 H        3.8567300000       -1.9093110000        1.2108140000
