41
 energy:     -1204.8549950500
 C        0.2560820000        3.3221120000       -1.1394160000
 C        1.3784590000        3.8375980000       -0.5126170000
 C       -0.0494880000        1.9727070000       -1.0405610000
 C        0.7476880000        1.1143780000       -0.2850050000
 C        1.8766250000        1.6464190000        0.3482890000
 C        2.1970410000        2.9891030000        0.2174070000
 H       -0.3889900000        3.9694360000       -1.7211550000
 H       -0.9238680000        1.5905760000       -1.5499760000
 H        1.6213940000        4.8895690000       -0.5934080000
 H        3.0870970000        3.3669320000        0.7063640000
 N        0.4584300000       -0.2526940000       -0.1442660000
 C        1.5275350000       -1.1587440000       -0.2394630000
 C        2.7327190000       -0.8657060000        0.4099410000
 S        2.8420840000        0.5979740000        1.3748850000
 C        1.4444840000       -2.3462020000       -0.9655670000
 C        2.5102190000       -3.2338690000       -0.9999110000
 C        3.6942220000       -2.9385070000       -0.3455190000
 C        3.8071580000       -1.7392660000        0.3414620000
 H        0.5437150000       -2.5841140000       -1.5151510000
 H        2.4117570000       -4.1561990000       -1.5594810000
 H        4.7300200000       -1.4769450000        0.8450450000
 H        4.5292310000       -3.6269120000       -0.3771230000
 C       -0.8862210000       -0.7183340000       -0.4154070000
 C       -1.8919140000       -0.1692400000        0.5899130000
 H       -0.8936410000       -1.8006480000       -0.3096330000
 H       -1.1969290000       -0.5022600000       -1.4454060000
 N       -3.2246040000       -0.6528590000        0.3184020000
 C       -3.8965630000       -0.0169730000       -0.8016850000
 C       -5.3475120000       -0.4771460000       -0.6687390000
 H       -3.4483040000       -0.3039900000       -1.7546040000
 H       -3.8348700000        1.0847750000       -0.7210430000
 H       -1.8591970000        0.9327460000        0.6183510000
 H       -1.5897100000       -0.5181660000        1.5803540000
 C       -5.5074600000       -0.8024390000        0.8310490000
 H       -5.5248270000       -1.3653540000       -1.2756370000
 H       -6.0414650000        0.2922860000       -1.0080050000
 C       -4.1423400000       -0.4781980000        1.4301980000
 H       -5.7429130000       -1.8578840000        0.9702010000
 H       -6.3018150000       -0.2248450000        1.3041580000
 H       -3.8664110000       -1.1278430000        2.2634150000
 H       -4.1247960000        0.5639710000        1.7993900000
