28
 energy:     -1067.6390811100
 C        3.3675760000       -0.0686010000        1.2222080000
 C        3.4846070000       -1.3206750000        0.6350860000
 C        2.2105650000        0.6734030000        1.0482040000
 C        1.1803990000        0.1904200000        0.2509050000
 C        1.2818800000       -1.0881380000       -0.2981910000
 C        2.4344230000       -1.8401320000       -0.1035000000
 H        4.1720540000        0.3265270000        1.8298450000
 H        2.1015640000        1.6395250000        1.5244970000
 H        4.3839670000       -1.9073470000        0.7757740000
 H        2.4974990000       -2.8351580000       -0.5271130000
 N        0.0063600000        0.9472380000        0.0148060000
 C       -1.2268890000        0.2722660000        0.2270240000
 C       -1.3803920000       -1.0036590000       -0.3111970000
 S       -0.0632350000       -1.7296680000       -1.2255410000
 C       -2.2647740000        0.8432880000        0.9501610000
 C       -3.4598320000        0.1587770000        1.0998680000
 C       -3.6175080000       -1.1060630000        0.5512300000
 C       -2.5732600000       -1.6956460000       -0.1407590000
 H       -2.1389850000        1.8334620000        1.3632270000
 H       -4.2715330000        0.6178290000        1.6503400000
 H       -2.6739510000       -2.6936210000       -0.5497400000
 H       -4.5504420000       -1.6423270000        0.6740690000
 C        0.0078990000        2.2214100000       -0.5403190000
 C        1.3280610000        2.7740330000       -1.0125910000
 H        1.8257540000        3.3130520000       -0.2045680000
 H        1.1010300000        3.4896490000       -1.7996860000
 H        2.0106900000        2.0101470000       -1.3801830000
 O       -1.0158650000        2.8535260000       -0.6650290000
