35
 energy:     -1259.2134122000
 C       -1.2153280000        2.5064540000        1.8100820000
 C       -0.6346370000        3.5098190000        1.0468540000
 C       -0.8779070000        1.1814330000        1.5901420000
 C        0.0113760000        0.8469580000        0.5766300000
 C        0.6206810000        1.8582320000       -0.1641400000
 C        0.2993710000        3.1885010000        0.0756620000
 H       -1.9256280000        2.7553560000        2.5885070000
 H       -1.3185700000        0.3953980000        2.1902020000
 H       -0.8902200000        4.5472110000        1.2238990000
 H        0.7881650000        3.9656370000       -0.4993540000
 N        0.3490270000       -0.5023140000        0.3038710000
 C        1.7387390000       -0.7922430000        0.2082380000
 C        2.5220250000        0.0483860000       -0.5835790000
 S        1.7780990000        1.4146490000       -1.4074580000
 C        2.3344500000       -1.8569130000        0.8728000000
 C        3.6879380000       -2.1050240000        0.7036800000
 C        4.4604620000       -1.2824570000       -0.1020160000
 C        3.8813050000       -0.1934650000       -0.7317470000
 H        1.7287580000       -2.5010060000        1.4910200000
 H        4.1394410000       -2.9481800000        1.2116450000
 H        4.4777150000        0.4773680000       -1.3381110000
 H        5.5185450000       -1.4763700000       -0.2280530000
 C       -0.5982800000       -1.5129250000        0.1970820000
 C       -1.9980720000       -1.1171570000       -0.1470300000
 C       -3.0351980000       -1.8407000000        0.4333260000
 C       -2.2860180000       -0.1555190000       -1.1108820000
 C       -3.5997920000        0.0877230000       -1.4773850000
 C       -4.6333370000       -0.6132700000       -0.8723380000
 C       -4.3492850000       -1.5780610000        0.0843360000
 H       -5.1532870000       -2.1349580000        0.5502870000
 H       -2.7947200000       -2.6151700000        1.1511490000
 H       -1.4813300000        0.3897590000       -1.5889000000
 H       -3.8169710000        0.8266870000       -2.2391260000
 H       -5.6605740000       -0.4141830000       -1.1537910000
 O       -0.3093830000       -2.6830470000        0.3218220000
