44
 energy:     -1244.1424361700
 C       -2.8401570000       -3.0105480000       -1.1238490000
 C       -3.7326680000       -2.8076080000       -0.0847110000
 C       -1.7880890000       -2.1303600000       -1.3325350000
 C       -1.5834310000       -1.0478880000       -0.4778560000
 C       -2.4971260000       -0.8473560000        0.5637570000
 C       -3.5682320000       -1.7086270000        0.7449960000
 H       -2.9666800000       -3.8516940000       -1.7946790000
 H       -1.1266420000       -2.2889760000       -2.1737510000
 H       -4.5584430000       -3.4893880000        0.0746860000
 H       -4.2646490000       -1.5184250000        1.5530270000
 N       -0.5079420000       -0.1582940000       -0.6273390000
 C       -0.7737330000        1.2139270000       -0.4968970000
 C       -1.6095710000        1.6556810000        0.5348320000
 S       -2.2235920000        0.4775680000        1.6848240000
 C       -0.2385110000        2.1645390000       -1.3644550000
 C       -0.5082420000        3.5140790000       -1.1910840000
 C       -1.3401820000        3.9401850000       -0.1689740000
 C       -1.9043930000        3.0023290000        0.6825410000
 H        0.4008110000        1.8529090000       -2.1794920000
 H       -0.0675810000        4.2334820000       -1.8706330000
 H       -2.5685630000        3.3109620000        1.4810500000
 H       -1.5555260000        4.9928390000       -0.0358330000
 C        0.6680440000       -0.5818280000       -1.3620970000
 C        1.9772200000       -0.1289660000       -0.7249440000
 H        0.6334440000       -0.2636630000       -2.4137260000
 H        0.6632980000       -1.6722750000       -1.3707340000
 C        3.1563990000       -0.5139270000       -1.6088480000
 C        4.4708820000       -0.1551250000       -0.9331130000
 H        3.0792560000       -0.0259140000       -2.5853760000
 H        3.1270630000       -1.5956430000       -1.7946830000
 C        4.5383020000       -0.7417830000        0.4650370000
 H        4.5623590000        0.9328860000       -0.8627040000
 H        5.3174240000       -0.5153670000       -1.5232420000
 N        3.4050970000       -0.3218680000        1.2615860000
 H        5.4528300000       -0.4154430000        0.9675680000
 H        4.5869880000       -1.8478710000        0.3977420000
 C        2.1531760000       -0.7300830000        0.6624590000
 H        1.9740390000        0.9589940000       -0.6092100000
 H        1.3342870000       -0.4123770000        1.3119110000
 H        2.0903960000       -1.8361800000        0.5841280000
 C        3.5129450000       -0.7779300000        2.6250260000
 H        4.4361180000       -0.4016980000        3.0708110000
 H        3.5184390000       -1.8797810000        2.7099920000
 H        2.6729090000       -0.3995860000        3.2105210000
