38
 energy:      -879.2453805710
 N       -3.4867670000       -0.6808090000        0.0136950000
 C       -2.9147570000       -0.1482480000        1.1061020000
 C       -1.5443610000       -0.1015930000        1.2323820000
 C       -2.7300680000       -1.1630610000       -0.9870570000
 C       -1.3594820000       -1.1462860000       -0.9082770000
 C       -0.7356810000       -0.6001570000        0.2155390000
 C        0.7376810000       -0.5453210000        0.3175730000
 C        1.3749300000        0.5697720000        0.8537850000
 C        2.7496900000        0.6087770000        0.9214390000
 C        1.5334080000       -1.6037800000       -0.1257320000
 C        2.9000300000       -1.5192410000       -0.0238940000
 N        3.4887850000       -0.4307850000        0.5006470000
 H       -3.2552660000       -1.5575250000       -1.8462210000
 H       -0.7911960000       -1.5325830000       -1.7437880000
 H       -3.5784540000        0.2173380000        1.8754320000
 H       -1.1271410000        0.3116120000        2.1408600000
 H        3.5548270000       -2.3158350000       -0.3499000000
 H        1.1024580000       -2.5097450000       -0.5304790000
 H        0.8199540000        1.4342990000        1.1929450000
 H        3.2845320000        1.4579080000        1.3203400000
 C       -4.9352850000       -0.5904910000       -0.1272810000
 C       -5.3720210000        0.8945360000       -0.2122520000
 H       -5.4140690000       -1.0454290000        0.7432170000
 H       -5.2484820000       -1.1472910000       -1.0089920000
 C       -6.7769400000        1.1207950000       -0.6464580000
 H       -7.0587000000        2.1552840000       -0.4654030000
 H       -7.4635870000        0.4432150000       -0.1330290000
 H       -6.8620430000        0.9089010000       -1.7172070000
 O       -4.5840510000        1.7490830000        0.0813540000
 C        4.9404660000       -0.2931260000        0.4883190000
 C        5.3625220000        0.8234340000       -0.5008500000
 H        5.3922240000       -1.2480050000        0.2242630000
 H        5.2882320000       -0.0238850000        1.4885150000
 C        6.8150700000        0.8756100000       -0.8191570000
 H        7.4216390000        0.7786220000        0.0846610000
 H        7.0481030000        1.8044510000       -1.3342250000
 H        7.0732480000        0.0321210000       -1.4675720000
 O        4.5251000000        1.5669150000       -0.9287170000
