42
 energy:      -881.6804859900
 N        3.4584430000       -0.2074920000        0.5214040000
 C        2.8487590000       -1.2989570000        0.0225950000
 C        1.4948750000       -1.3323810000       -0.1913000000
 C        0.7317540000       -0.2046360000        0.1044930000
 C        2.7598810000        0.9140960000        0.8200320000
 C        1.3892720000        0.9114520000        0.6075050000
 C       -0.7317550000       -0.2046350000       -0.1044950000
 C       -1.4948780000       -1.3323800000        0.1912920000
 C       -2.8487620000       -1.2989550000       -0.0226030000
 N       -3.4584440000       -0.2074860000       -0.5214060000
 C       -2.7598820000        0.9141020000       -0.8200280000
 C       -1.3892730000        0.9114560000       -0.6075020000
 H        3.4929230000       -2.1352450000       -0.2065700000
 H        1.0571080000       -2.2291660000       -0.6080190000
 H        0.8388630000        1.8029190000        0.8769780000
 H       -1.0571110000       -2.2291680000        0.6080060000
 H       -3.4929260000       -2.1352420000        0.2065590000
 H       -0.8388630000        1.8029240000       -0.8769690000
 C        4.9275650000       -0.2755130000        0.6781790000
 C        5.6406950000        0.0152790000       -0.6284560000
 H        5.2354980000        0.4178600000        1.4548960000
 H        5.1614100000       -1.2868130000        1.0086850000
 O        5.1922550000       -0.9317750000       -1.5603060000
 H        6.7146890000       -0.0671260000       -0.4297150000
 H        5.4364830000        1.0404390000       -0.9617390000
 C       -4.9275670000       -0.2755060000       -0.6781790000
 C       -5.6406940000        0.0152730000        0.6284600000
 H       -5.1614120000       -1.2868020000       -1.0086940000
 H       -5.2355020000        0.4178750000       -1.4548890000
 O       -5.1922470000       -0.9317890000        1.5602980000
 H       -5.4364820000        1.0404300000        0.9617530000
 H       -6.7146870000       -0.0671320000        0.4297220000
 C        3.4546180000        2.1031640000        1.3812260000
 H        4.2672600000        2.4423390000        0.7368870000
 H        3.8773900000        1.8849960000        2.3657410000
 H        2.7499530000        2.9230830000        1.4971710000
 C       -3.4546180000        2.1031740000       -1.3812150000
 H       -4.2672590000        2.4423470000       -0.7368740000
 H       -3.8773920000        1.8850120000       -2.3657310000
 H       -2.7499520000        2.9230930000       -1.4971570000
 H        5.7140840000       -0.8817180000       -2.3641730000
 H       -5.7140740000       -0.8817410000        2.3641680000
