30
 energy:      -758.4515689260
 N       -3.4563320000        0.5344400000        0.1089180000
 C       -2.9707670000       -0.6481650000       -0.2932150000
 C       -1.6123360000       -0.8834150000       -0.2952870000
 C       -2.6321570000        1.5176680000        0.5140910000
 C       -1.2712790000        1.3355810000        0.5225540000
 C       -0.7314250000        0.1132330000        0.1141710000
 C        0.7314280000       -0.1132370000        0.1141500000
 C        1.2712940000       -1.3355800000        0.5225300000
 C        1.6123260000        0.8834070000       -0.2953460000
 C        2.9707580000        0.6481570000       -0.2933110000
 C        2.6321720000       -1.5176660000        0.5140280000
 N        3.4563350000       -0.5344430000        0.1088210000
 H        3.6930320000        1.3907810000       -0.6107130000
 H        1.2644870000        1.8462700000       -0.6461980000
 H        0.6473970000       -2.1467010000        0.8746720000
 H        3.0958190000       -2.4432610000        0.8313140000
 H       -0.6473710000        2.1467060000        0.8746680000
 H       -3.0957940000        2.4432660000        0.8313800000
 H       -3.6930510000       -1.3907910000       -0.6105880000
 H       -1.2645080000       -1.8462820000       -0.6461390000
 C       -4.9206930000        0.8189410000        0.1217790000
 C        4.9206950000       -0.8189460000        0.1216350000
 C       -5.6967050000       -0.3355130000       -0.2782260000
 H       -5.1087860000        1.6526960000       -0.5593920000
 H       -5.1954460000        1.1233220000        1.1345570000
 N       -6.2720960000       -1.2745000000       -0.6027870000
 C        5.6966970000        0.3355200000       -0.2783560000
 H        5.1954750000       -1.1233580000        1.1343960000
 H        5.1087710000       -1.6526800000       -0.5595670000
 N        6.2720820000        1.2745200000       -0.6028910000
