36
 energy:      -837.0376692410
 N        3.4954290000        0.0351910000       -0.0725070000
 C        2.8279700000       -1.0527860000        0.3544210000
 C        1.4572200000       -1.0797890000        0.3908450000
 C        0.7399130000        0.0447020000       -0.0122960000
 C        2.8435460000        1.1552850000       -0.4800440000
 C        1.4576470000        1.1550660000       -0.4419070000
 C       -0.7399130000        0.0447050000        0.0122720000
 C       -1.4572250000       -1.0797750000       -0.3908930000
 C       -2.8279750000       -1.0527670000       -0.3544670000
 N       -3.4954290000        0.0352020000        0.0724880000
 C       -2.8435410000        1.1552860000        0.4800470000
 C       -1.4576420000        1.1550630000        0.4419070000
 H        3.4303340000       -1.8968330000        0.6662170000
 H        0.9704630000       -1.9733350000        0.7582710000
 H        0.9497250000        2.0454210000       -0.7883650000
 H       -0.9704710000       -1.9733130000       -0.7583410000
 H       -3.4303430000       -1.8968050000       -0.6662790000
 H       -0.9497160000        2.0454090000        0.7883840000
 C        3.6171140000        2.3302200000       -0.9541190000
 H        4.2296010000        2.0837260000       -1.8258640000
 H        4.2863130000        2.7127370000       -0.1786440000
 H        2.9406930000        3.1324080000       -1.2382800000
 C       -3.6171040000        2.3302110000        0.9541530000
 H       -4.2295400000        2.0837090000        1.8259320000
 H       -4.2863510000        2.7127160000        0.1787140000
 H       -2.9406810000        3.1324110000        1.2382770000
 C        4.9815690000        0.0318860000       -0.1089740000
 C        5.5408320000       -1.2233650000        0.3484400000
 H        5.3463000000        0.8459440000        0.5214840000
 H        5.3037110000        0.2229980000       -1.1351160000
 N        5.9616080000       -2.2266930000        0.7148610000
 C       -4.9815690000        0.0319040000        0.1089530000
 C       -5.5408350000       -1.2233610000       -0.3484190000
 H       -5.3462980000        0.8459390000       -0.5215350000
 H       -5.3037110000        0.2230560000        1.1350880000
 N       -5.9616180000       -2.2267140000       -0.7147660000
