44
 energy:      -957.8263870910
 N       -3.4922900000        0.1639680000       -0.6161680000
 C       -2.9008910000       -0.8491680000       -1.2772510000
 C       -1.5404330000       -0.9941480000       -1.3095150000
 C       -0.7441420000       -0.0658270000       -0.6378480000
 C       -2.7618790000        1.0790700000        0.0641990000
 C       -1.3784350000        0.9678170000        0.0360290000
 C        0.7284210000       -0.1920990000       -0.6273350000
 C        1.3366230000       -1.4381640000       -0.4697790000
 C        2.7027890000       -1.5108860000       -0.4367220000
 N        3.4765490000       -0.4176030000       -0.5766140000
 C        2.9320130000        0.8123370000       -0.7339570000
 C        1.5481640000        0.9188430000       -0.7625370000
 H       -3.5620400000       -1.5397470000       -1.7823800000
 H       -1.1167590000       -1.8150490000       -1.8719010000
 H       -0.8066090000        1.6956770000        0.5959890000
 H        0.7627230000       -2.3451580000       -0.3367070000
 H        3.2223000000       -2.4480800000       -0.2919410000
 H        1.1255170000        1.9033880000       -0.9117650000
 C       -4.9497740000        0.1540440000       -0.5237680000
 C       -5.3976490000       -0.5512570000        0.7780710000
 H       -5.3353240000        1.1724260000       -0.5496650000
 H       -5.3529660000       -0.3665430000       -1.3924170000
 C       -6.8684030000       -0.7218690000        0.9407280000
 H       -7.0851470000       -1.1336160000        1.9234370000
 H       -7.2512240000       -1.3994750000        0.1715220000
 H       -7.3893970000        0.2301260000        0.8091840000
 O       -4.5624280000       -0.9126500000        1.5590960000
 C       -3.4393830000        2.1698030000        0.8092840000
 H       -2.7003340000        2.8042470000        1.2922270000
 H       -4.0363700000        2.7981370000        0.1429520000
 H       -4.0957440000        1.7673740000        1.5832370000
 C        4.9173100000       -0.5774700000       -0.3995380000
 C        5.3174870000       -0.2497700000        1.0582650000
 H        5.4550430000        0.0743710000       -1.0873570000
 H        5.1900760000       -1.6033770000       -0.6461950000
 C        6.7420330000       -0.5121030000        1.4051130000
 H        6.9381200000       -1.5882530000        1.3727710000
 H        6.9531110000       -0.1389350000        2.4043330000
 H        7.4146980000       -0.0473850000        0.6795600000
 O        4.4856100000        0.1835150000        1.8056360000
 C        3.8069160000        2.0012740000       -0.8918310000
 H        4.4508600000        1.9078970000       -1.7704260000
 H        4.4394540000        2.1435300000       -0.0138420000
 H        3.2001470000        2.8944220000       -1.0186360000
