50
 energy:     -1220.1930551700
 N        3.4771970000       -0.6412820000       -0.6534660000
 C        2.8002090000       -1.6865530000       -1.1564680000
 C        1.4324330000       -1.7555140000       -1.0524520000
 C        2.8385620000        0.3638590000       -0.0470940000
 C        1.4651510000        0.3479310000        0.0793120000
 C        0.7333980000       -0.7259880000       -0.4197600000
 C       -0.7371470000       -0.7848170000       -0.2725250000
 C       -1.3747010000       -1.9854880000        0.0466020000
 C       -1.5269070000        0.3493470000       -0.4384170000
 C       -2.8951490000        0.2645090000       -0.2848070000
 C       -2.7392040000       -2.0111560000        0.1997290000
 N       -3.4718530000       -0.8982410000        0.0317390000
 H       -0.8199500000       -2.8997770000        0.2114940000
 H       -3.2752570000       -2.9101650000        0.4773880000
 H        3.3861710000       -2.4663640000       -1.6266830000
 H        0.9254750000       -2.6090290000       -1.4828640000
 H        0.9886370000        1.1675680000        0.6007280000
 H        3.4598740000        1.1629050000        0.3362990000
 H       -3.5598030000        1.1100030000       -0.4073760000
 H       -1.0991430000        1.3058250000       -0.7083820000
 C        5.0040480000       -0.6239820000       -0.8064000000
 C        5.4796940000       -1.9235290000       -0.3451110000
 N        5.8133530000       -2.9646800000        0.0065840000
 C        5.6641550000        0.5350610000       -0.1234380000
 H        5.1697390000       -0.5567120000       -1.8856440000
 C        5.9191650000        1.6910900000       -0.8586710000
 C        6.0315890000        0.4603370000        1.2187700000
 C        6.6394820000        1.5483110000        1.8233390000
 C        6.8852210000        2.7034600000        1.0923540000
 C        6.5283110000        2.7750440000       -0.2474400000
 H        5.8713850000       -0.4517120000        1.7835890000
 H        6.9397070000        1.4876850000        2.8616430000
 H        7.3736170000        3.5463360000        1.5653230000
 H        5.6637950000        1.7391090000       -1.9122590000
 H        6.7411060000        3.6681160000       -0.8210570000
 C       -4.9900470000       -1.0019650000        0.2238220000
 C       -5.1938710000       -1.5247090000        1.5707170000
 N       -5.3098500000       -1.9548110000        2.6292360000
 C       -5.7203380000        0.2780500000       -0.0473960000
 H       -5.3034930000       -1.7630310000       -0.4964820000
 C       -5.9558170000        1.1997560000        0.9706510000
 C       -6.6335340000        2.3746460000        0.6871230000
 C       -7.0776910000        2.6276390000       -0.6038450000
 C       -6.8510430000        1.7053430000       -1.6170490000
 C       -6.1749470000        0.5284430000       -1.3409800000
 H       -5.6391280000        0.9902860000        1.9866540000
 H       -6.8320120000        3.0848790000        1.4796310000
 H       -7.6191450000        3.5406520000       -0.8180970000
 H       -7.2179600000        1.8943890000       -2.6178160000
 H       -6.0216740000       -0.2026280000       -2.1281440000
