34
 energy:     -1571.6652832300
 N       -3.4810160000       -0.8132870000       -0.0636630000
 C       -2.7076520000       -1.2120650000       -1.0865520000
 C       -1.3371890000       -1.1819100000       -0.9914100000
 C       -2.9301490000       -0.3658750000        1.0747300000
 C       -1.5615860000       -0.3069020000        1.2207420000
 C       -0.7341680000       -0.7176760000        0.1790370000
 C        0.7382040000       -0.6648010000        0.3094900000
 C        1.5445630000       -1.6869660000       -0.1945050000
 C        1.3623000000        0.4068570000        0.9425110000
 C        2.7354100000        0.4360480000        1.0493240000
 C        2.9092820000       -1.6114670000       -0.0525770000
 N        3.4839770000       -0.5644870000        0.5613760000
 H        3.2646170000        1.2500190000        1.5241510000
 H        0.7989900000        1.2421590000        1.3369370000
 H        1.1236390000       -2.5615130000       -0.6726100000
 H        3.5732240000       -2.3853890000       -0.4147100000
 H       -1.1608780000        0.0380600000        2.1646440000
 H       -3.6118740000       -0.0686430000        1.8588650000
 H       -3.2193050000       -1.5551640000       -1.9761570000
 H       -0.7540070000       -1.5005170000       -1.8451940000
 C       -4.9498220000       -0.7932920000       -0.2162580000
 C       -5.4397770000        0.5039240000       -0.8321530000
 H       -5.3831340000       -0.9429270000        0.7713990000
 H       -5.2302960000       -1.6371250000       -0.8479320000
Cl       -5.0062030000        1.9013680000        0.1605690000
 H       -6.5260450000        0.4608880000       -0.9022870000
 H       -5.0317510000        0.6607870000       -1.8302420000
 C        4.9561370000       -0.4723310000        0.6351560000
 C        5.5482130000        0.1721560000       -0.6042520000
 H        5.3471820000       -1.4835290000        0.7549090000
 H        5.2033390000        0.1008430000        1.5273150000
Cl        4.9370430000        1.8143360000       -0.8399010000
 H        5.3296630000       -0.4007640000       -1.5049660000
 H        6.6290510000        0.2260550000       -0.4791660000
