38
 energy:      -763.3871251480
 N       -3.4933450000       -0.5576340000       -0.0799920000
 C       -2.9055660000        0.2275140000       -0.9962180000
 C       -2.7513060000       -1.2688850000        0.7852180000
 C       -1.5312720000        0.3114900000       -1.0742490000
 C       -0.7372190000       -0.4263240000       -0.2020040000
 C       -1.3795080000       -1.2302830000        0.7428770000
 C        0.7374890000       -0.3729940000       -0.2822980000
 C        1.4006690000        0.8176600000       -0.5625520000
 C        2.7766970000        0.8381270000       -0.6494810000
 N        3.4913310000       -0.2845380000       -0.4743240000
 C        2.8778790000       -1.4463580000       -0.1933410000
 C        1.5105670000       -1.5207760000       -0.0917140000
 H        3.5156840000       -2.3108610000       -0.0669010000
 H        1.0598410000       -2.4847680000        0.1026720000
 H        0.8646280000        1.7471020000       -0.7006950000
 H        3.3356860000        1.7362460000       -0.8599540000
 H       -3.2917360000       -1.8697560000        1.5042760000
 H       -0.8246510000       -1.8153380000        1.4639690000
 H       -3.5616700000        0.7664210000       -1.6612380000
 H       -1.0995430000        0.9321150000       -1.8479490000
 C       -4.9608890000       -0.5553370000        0.0332260000
 C       -5.4469150000        0.6769860000        0.7998240000
 H       -5.2606110000       -1.4752110000        0.5329420000
 H       -5.3659320000       -0.5669250000       -0.9787620000
 N       -5.0633760000        1.8899480000        0.1150170000
 H       -5.0100560000        0.6680000000        1.8008640000
 H       -6.5277130000        0.5524460000        0.9294250000
 C        4.9613570000       -0.2114890000       -0.4959870000
 C        5.5018380000        0.3239690000        0.8322030000
 H        5.2433240000        0.4430310000       -1.3208400000
 H        5.3436320000       -1.2095980000       -0.7041780000
 N        5.0109000000        1.6590540000        1.0844400000
 H        5.1856130000       -0.3413790000        1.6386230000
 H        6.5931670000        0.2467670000        0.7734880000
 H       -5.7718050000        2.1935360000       -0.5407230000
 H       -4.9093000000        2.6522900000        0.7593060000
 H        4.9074530000        1.8417060000        2.0723040000
 H        5.6324950000        2.3665760000        0.7143570000
