40
 energy:     -1650.2452233200
 N       -3.3895990000       -0.8953650000        0.2309840000
 C       -2.7488120000       -1.4055510000       -0.8381790000
 C       -1.4159630000       -1.1883180000       -1.0572760000
 C       -0.7019270000       -0.4033830000       -0.1496870000
 C       -2.7368940000       -0.1448230000        1.1492400000
 C       -1.3834540000        0.1028850000        0.9466880000
 C        0.7382250000       -0.1325650000       -0.3482390000
 C        1.5985100000       -1.1307350000       -0.7994310000
 C        2.9287670000       -0.8406490000       -0.9653540000
 N        3.4221140000        0.3869630000       -0.7160260000
 C        2.6209240000        1.3940380000       -0.2885030000
 C        1.2734230000        1.1263380000       -0.1006220000
 H       -3.3507560000       -1.9974360000       -1.5147290000
 H       -0.9558300000       -1.6096460000       -1.9407170000
 H       -0.8670290000        0.6880900000        1.6957090000
 H        1.2580670000       -2.1375790000       -0.9996250000
 H        3.6407450000       -1.5799210000       -1.3024410000
 H        0.6396720000        1.9433000000        0.2178020000
 C       -4.8427520000       -1.1611740000        0.3262110000
 C       -5.6390620000       -0.3690350000       -0.6921680000
 H       -4.9903260000       -2.2296770000        0.1573540000
 H       -5.1688860000       -0.9332870000        1.3352700000
Cl       -5.3899840000        1.3746820000       -0.5183780000
 H       -6.6973260000       -0.5790680000       -0.5423590000
 H       -5.3780270000       -0.6373170000       -1.7154270000
 C        4.8785370000        0.5718560000       -0.8718120000
 C        5.6454950000        0.2855270000        0.4070260000
 H        5.0676120000        1.5929270000       -1.1977820000
 H        5.2031540000       -0.0988460000       -1.6656240000
Cl        5.4174960000       -1.3810980000        0.9541970000
 H        6.7063890000        0.4317380000        0.2075030000
 H        5.3521470000        0.9427780000        1.2238490000
 C        3.1806720000        2.7524630000       -0.0607510000
 H        3.5479560000        3.1863300000       -0.9951330000
 H        4.0080580000        2.7448200000        0.6500720000
 H        2.4081540000        3.4108540000        0.3290150000
 C       -3.4403220000        0.3758970000        2.3502500000
 H       -4.2865380000        1.0064720000        2.0730370000
 H       -2.7534710000        0.9675150000        2.9506780000
 H       -3.8112680000       -0.4407870000        2.9755490000
