46
 energy:     -1366.0792485000
 N       -0.0000000000       -0.0000000000        3.5052520000
 C       -0.3821380000        1.1035160000        2.8351050000
 C       -0.3782070000        1.1323880000        1.4606530000
 C        0.3821380000       -1.1035160000        2.8351050000
 C        0.3782070000       -1.1323880000        1.4606530000
 C       -0.0000000000       -0.0000000000        0.7387090000
 C        0.0000000000       -0.0000000000       -0.7387090000
 C        0.3782070000        1.1323880000       -1.4606530000
 C       -0.3782070000       -1.1323880000       -1.4606530000
 C       -0.3821380000       -1.1035160000       -2.8351050000
 C        0.3821380000        1.1035160000       -2.8351050000
 N        0.0000000000       -0.0000000000       -3.5052520000
 H       -0.7108520000       -1.9387920000       -3.4378080000
 H       -0.7160560000       -2.0346250000       -0.9681260000
 H        0.7160560000        2.0346250000       -0.9681260000
 H        0.7108520000        1.9387920000       -3.4378080000
 H        0.7160560000       -2.0346250000        0.9681260000
 H        0.7108520000       -1.9387920000        3.4378080000
 H       -0.7108520000        1.9387920000        3.4378080000
 H       -0.7160560000        2.0346250000        0.9681260000
 C       -0.0000000000       -0.0000000000        4.9499250000
 C       -0.6116350000       -1.0513870000        5.6184830000
 C        0.6116350000        1.0513870000        5.6184830000
 C        0.6104680000        1.0487740000        7.0023420000
 C       -0.0000000000       -0.0000000000        7.6644450000
 C       -0.6104680000       -1.0487740000        7.0023420000
 H       -1.1150050000       -1.8436260000        5.0775850000
 H       -1.0838670000       -1.8366860000        7.5729430000
 H        1.1150050000        1.8436260000        5.0775850000
 H        1.0838670000        1.8366860000        7.5729430000
 C        0.0000000000       -0.0000000000       -4.9499250000
 C       -0.6116350000        1.0513870000       -5.6184830000
 C       -0.6104680000        1.0487740000       -7.0023420000
 C        0.0000000000       -0.0000000000       -7.6644450000
 C        0.6116350000       -1.0513870000       -5.6184830000
 C        0.6104680000       -1.0487740000       -7.0023420000
 H        1.1150050000       -1.8436260000       -5.0775850000
 H        1.0838670000       -1.8366860000       -7.5729430000
 H       -1.1150050000        1.8436260000       -5.0775850000
 H       -1.0838670000        1.8366860000       -7.5729430000
 N        0.0000000000        0.0000000000       -9.1465700000
 O       -0.5279730000        0.9413650000       -9.6836850000
 O        0.5279730000       -0.9413650000       -9.6836850000
 N       -0.0000000000        0.0000000000        9.1465700000
 O        0.5279730000        0.9413650000        9.6836850000
 O       -0.5279730000       -0.9413650000        9.6836850000
