46
 energy:     -1067.9870767600
 N       -3.2566900000       -1.2711010000        0.1241450000
 C       -2.7834820000       -0.6554370000        1.2179020000
 C       -1.5003110000       -0.1529260000        1.2408440000
 C       -2.5022290000       -1.3832280000       -0.9800020000
 C       -1.2201490000       -0.8923740000       -1.0135500000
 C       -0.6902470000       -0.2634390000        0.1150390000
 C        0.6902480000        0.2634280000        0.1150510000
 C        1.5003270000        0.1528260000        1.2408370000
 C        1.2201350000        0.8924530000       -1.0134940000
 C        2.5022160000        1.3833050000       -0.9799250000
 C        2.7834970000        0.6553390000        1.2179190000
 N        3.2566910000        1.2710910000        0.1242050000
 H        2.9546540000        1.8822600000       -1.8260250000
 H        0.6366590000        1.0324560000       -1.9134470000
 H        1.1592790000       -0.3433250000        2.1394410000
 H        3.4522750000        0.5881910000        2.0620760000
 H       -0.6366840000       -1.0323050000       -1.9135210000
 H       -2.9546780000       -1.8821160000       -1.8261370000
 H       -3.4522500000       -0.5883550000        2.0620730000
 H       -1.1592530000        0.3431540000        2.1394830000
 C       -4.6581940000       -1.7161520000        0.1154810000
 C       -5.5964980000       -0.5379160000       -0.0547810000
 H       -4.8428520000       -2.2215890000        1.0656760000
 H       -4.7797080000       -2.4454040000       -0.6827130000
 C       -6.7687100000       -0.6756990000       -0.7794890000
 C       -7.6269350000        0.4134180000       -0.8353350000
 C       -7.2729760000        1.5801990000       -0.1802180000
 C       -6.0687600000        1.6166630000        0.5076050000
 N       -5.2448370000        0.5753240000        0.5719920000
 H       -7.0139980000       -1.6049300000       -1.2793470000
 H       -8.5570250000        0.3481730000       -1.3861090000
 H       -7.9140450000        2.4516010000       -0.2005620000
 H       -5.7552890000        2.5145040000        1.0286110000
 C        4.6581940000        1.7161430000        0.1155580000
 C        5.5964980000        0.5379210000       -0.0548080000
 H        4.8428640000        2.2215060000        1.0657900000
 H        4.7796980000        2.4454570000       -0.6825810000
 C        6.7687010000        0.6757620000       -0.7795180000
 N        5.2448440000       -0.5753690000        0.5718820000
 C        6.0687670000       -1.6167030000        0.5074040000
 C        7.2729760000       -1.5801830000       -0.1804300000
 C        7.6269260000       -0.4133500000       -0.8354590000
 H        5.7553030000       -2.5145850000        1.0283420000
 H        7.9140450000       -2.4515830000       -0.2008500000
 H        8.5570100000       -0.3480620000       -1.3862390000
 H        7.0139820000        1.6050320000       -1.2793060000
