28
 energy:      -574.1432419140
 C       -2.7455510000       -1.0623620000       -1.1318930000
 C       -3.4926790000       -0.2121680000       -0.3374300000
 C       -1.3572660000       -0.9842640000       -1.0843170000
 C       -2.8379720000        0.6886290000        0.4755690000
 N       -1.4967930000        0.7559910000        0.5145830000
 C       -0.7422110000       -0.0718740000       -0.2537490000
 C        0.7422170000        0.0718420000       -0.2537410000
 C        1.3572910000        0.9841280000       -1.0844080000
 C        2.7455780000        1.0622210000       -1.1319620000
 C        3.4926870000        0.2121260000       -0.3373750000
 N        1.4967810000       -0.7559270000        0.5147120000
 C        2.8379610000       -0.6885700000        0.4757210000
 H       -3.2290680000       -1.7769230000       -1.7873800000
 H       -0.7472650000       -1.6265470000       -1.7071720000
 H       -4.5747810000       -0.2316560000       -0.3391160000
 H       -3.3691470000        1.3815320000        1.1145820000
 H        0.7473050000        1.6263340000       -1.7073570000
 H        3.2291090000        1.7766990000       -1.7875270000
 H        3.3691210000       -1.3813930000        1.1148330000
 H        4.5747890000        0.2316130000       -0.3390390000
 C       -0.8677750000        1.7660090000        1.3834520000
 H       -1.6211710000        2.1650660000        2.0564770000
 H       -0.4627170000        2.5745980000        0.7764730000
 H       -0.0742750000        1.3108440000        1.9725240000
 C        0.8677430000       -1.7658370000        1.3836920000
 H        0.4627040000       -2.5745030000        0.7768050000
 H        0.0742260000       -1.3106000000        1.9726850000
 H        1.6211220000       -2.1648050000        2.0567890000
