48
 energy:     -1035.9212024500
 N        3.4185660000       -1.5577420000        0.7712780000
 C        2.6669340000       -2.6544490000        0.9935760000
 C        1.3326020000       -2.6930280000        0.6960980000
 C        2.8792760000       -0.4407420000        0.2190790000
 C        1.5129230000       -0.4402160000       -0.0593400000
 C        0.7204430000       -1.5536710000        0.1656450000
 H        1.1067810000        0.4505490000       -0.5191220000
 H        3.1795930000       -3.4976370000        1.4359200000
 H        0.7780000000       -3.5956570000        0.9130850000
 C       -0.7204390000       -1.5536710000       -0.1656480000
 C       -1.3325980000       -2.6930250000       -0.6961030000
 C       -2.6669310000       -2.6544450000       -0.9935790000
 C       -1.5129180000       -0.4402150000        0.0593400000
 C       -2.8792710000       -0.4407390000       -0.2190800000
 N       -3.4185620000       -1.5577380000       -0.7712790000
 H       -1.1067760000        0.4505480000        0.5191250000
 H       -0.7779980000       -3.5956560000       -0.9130910000
 H       -3.1795910000       -3.4976330000       -1.4359220000
 C       -4.8265790000       -1.6100710000       -1.1999560000
 H       -5.1573090000       -0.6114570000       -1.4684890000
 H       -5.4498170000       -1.9968590000       -0.3955940000
 H       -4.8950380000       -2.2679060000       -2.0625950000
 C        4.8265800000       -1.6100780000        1.1999640000
 H        4.8950320000       -2.2679150000        2.0626020000
 H        5.1573110000       -0.6114650000        1.4685020000
 H        5.4498230000       -1.9968660000        0.3956060000
 C       -3.7018080000        0.7322750000        0.0903290000
 C       -3.2935170000        1.9853220000       -0.3738860000
 C       -4.8388100000        0.6292530000        0.8966350000
 C       -5.5566220000        1.7652420000        1.2248520000
 C       -5.1606000000        3.0047280000        0.7395860000
 C       -4.0318850000        3.1131670000       -0.0612460000
 H       -2.4202060000        2.0716790000       -1.0103360000
 H       -5.1427710000       -0.3280030000        1.3028940000
 H       -6.4257630000        1.6842180000        1.8651000000
 H       -5.7323580000        3.8895460000        0.9899050000
 H       -3.7279590000        4.0787550000       -0.4447960000
 C        3.7018100000        0.7322750000       -0.0903280000
 C        3.2935220000        1.9853190000        0.3738990000
 C        4.8388030000        0.6292620000       -0.8966490000
 C        4.0318840000        3.1131670000        0.0612600000
 C        5.1605900000        3.0047370000       -0.7395850000
 C        5.5566090000        1.7652560000       -1.2248650000
 H        5.1427600000       -0.3279890000       -1.3029220000
 H        2.4202170000        2.0716690000        1.0103580000
 H        3.7279600000        4.0787520000        0.4448200000
 H        5.7323440000        3.8895580000       -0.9899040000
 H        6.4257420000        1.6842380000       -1.8651260000
