42
 energy:      -957.3480549050
 N       -0.0000000000        0.0000000000        3.5071880000
 C       -1.1086700000        0.3633200000        2.8351840000
 C       -1.1317080000        0.3777170000        1.4611100000
 C        1.1086700000       -0.3633200000        2.8351840000
 C        1.1317080000       -0.3777170000        1.4611100000
 C       -0.0000000000        0.0000000000        0.7378080000
 C        0.0000000000       -0.0000000000       -0.7378080000
 C       -1.1317070000       -0.3777200000       -1.4611100000
 C        1.1317070000        0.3777200000       -1.4611100000
 C        1.1086690000        0.3633230000       -2.8351840000
 C       -1.1086690000       -0.3633230000       -2.8351840000
 N        0.0000000000       -0.0000000000       -3.5071880000
 H       -2.0411830000       -0.6956400000       -0.9688390000
 H       -1.9682660000       -0.6192090000       -3.4385740000
 H       -1.9682680000        0.6192030000        3.4385740000
 H       -2.0411850000        0.6956340000        0.9688390000
 H        1.9682680000       -0.6192030000        3.4385740000
 H        2.0411850000       -0.6956340000        0.9688390000
 H        1.9682660000        0.6192090000       -3.4385740000
 H        2.0411830000        0.6956400000       -0.9688390000
 C        0.0000000000       -0.0000000000       -4.9498980000
 C       -0.5025930000       -1.1058790000       -5.6214940000
 C       -0.4968750000       -1.0977100000       -7.0061130000
 C        0.0000000000       -0.0000000000       -7.6961330000
 C        0.5025930000        1.1058790000       -5.6214940000
 C        0.4968750000        1.0977100000       -7.0061130000
 C       -0.0000000000        0.0000000000        4.9498980000
 C       -0.5025970000        1.1058770000        5.6214940000
 C       -0.4968790000        1.0977080000        7.0061130000
 C       -0.0000000000        0.0000000000        7.6961330000
 C        0.4968790000       -1.0977080000        7.0061130000
 C        0.5025970000       -1.1058770000        5.6214940000
 H       -0.8545990000       -1.9761430000       -5.0801850000
 H       -0.8699220000       -1.9582130000       -7.5463710000
 H        0.0000000000       -0.0000000000       -8.7787270000
 H        0.8545990000        1.9761430000       -5.0801850000
 H        0.8699220000        1.9582130000       -7.5463710000
 H       -0.8546060000        1.9761400000        5.0801850000
 H       -0.8699290000        1.9582100000        7.5463710000
 H       -0.0000000000        0.0000000000        8.7787270000
 H        0.8699290000       -1.9582100000        7.5463710000
 H        0.8546060000       -1.9761400000        5.0801850000
