48
 energy:     -1035.9097296500
 N       -3.3231470000        1.0989360000       -0.3260730000
 C       -2.3446300000        1.9311400000       -0.7153840000
 C       -1.0311200000        1.5300550000       -0.7232710000
 C       -3.0398360000       -0.1475680000        0.0616170000
 C       -1.7389410000       -0.6073530000        0.0675070000
 C       -0.7017280000        0.2320420000       -0.3270420000
 C        0.7017280000       -0.2320230000       -0.3270570000
 C        1.7389400000        0.6073470000        0.0675470000
 C        1.0311200000       -1.5300100000       -0.7233700000
 C        2.3446300000       -1.9310950000       -0.7155080000
 C        3.0398350000        0.1475630000        0.0616270000
 N        3.3231470000       -1.0989170000       -0.3261440000
 H        2.6505750000       -2.9228810000       -1.0230050000
 H        0.2789420000       -2.2286320000       -1.0649740000
 H        1.5540620000        1.6174860000        0.4083330000
 H        3.8839360000        0.7534120000        0.3649430000
 H       -1.5540630000       -1.6175140000        0.4082270000
 H       -3.8839360000       -0.7534370000        0.3648930000
 H       -2.6505740000        2.9229450000       -1.0228160000
 H       -0.2789420000        2.2286990000       -1.0648290000
 C       -4.7429620000        1.6224150000       -0.3358110000
 C       -5.7692600000        0.6104620000        0.0382440000
 H       -4.7418520000        2.4676380000        0.3542600000
 H       -4.9006670000        2.0000310000       -1.3470480000
 C       -6.1717950000        0.4789520000        1.3661230000
 C       -7.1332890000       -0.4576730000        1.7115760000
 C       -7.6977420000       -1.2642740000        0.7329330000
 C       -6.3457940000       -0.1969630000       -0.9409510000
 C       -7.3066040000       -1.1327580000       -0.5927870000
 H       -6.0607690000       -0.0799690000       -1.9814610000
 H       -7.7632680000       -1.7479010000       -1.3577760000
 H       -8.4573620000       -1.9876130000        1.0020110000
 H       -5.7501060000        1.1242490000        2.1298830000
 H       -7.4542780000       -0.5470300000        2.7416750000
 C        4.7429620000       -1.6223950000       -0.3359150000
 C        5.7692600000       -0.6104640000        0.0382010000
 H        4.9006660000       -1.9999480000       -1.3471760000
 H        4.7418530000       -2.4676600000        0.3541040000
 C        6.1717980000       -0.4790360000        1.3660880000
 C        7.1332920000        0.4575680000        1.7115970000
 C        7.6977420000        1.2642300000        0.7330030000
 C        6.3457920000        0.1970230000       -0.9409450000
 C        7.3066010000        1.1327970000       -0.5927240000
 H        5.7501100000       -1.1243810000        2.1298080000
 H        7.4542830000        0.5468600000        2.7417010000
 H        8.4573620000        1.9875530000        1.0021240000
 H        6.0607640000        0.0800930000       -1.9814620000
 H        7.7632640000        1.7479870000       -1.3576760000
