34
 energy:      -652.7433452660
 N        0.0008160000        3.5049570000        0.1743030000
 C        0.3915370000        2.8400990000       -0.9180110000
 C       -0.3915370000        2.8334290000        1.2704690000
 C        0.3974970000        1.4607140000       -0.9470990000
 C        0.0000540000        0.7393510000        0.1741340000
 C       -0.3985340000        1.4607200000        1.3016050000
 C       -0.0000540000       -0.7393510000        0.1741340000
 C       -0.3974970000       -1.4607140000       -0.9470990000
 C       -0.3915370000       -2.8400990000       -0.9180110000
 N       -0.0008160000       -3.5049570000        0.1743030000
 C        0.3915370000       -2.8334290000        1.2704690000
 C        0.3985340000       -1.4607200000        1.3016050000
 H        0.7014970000       -3.4339710000        2.1160030000
 H        0.7414300000       -0.9678700000        2.2017730000
 H       -0.7415750000       -0.9694550000       -1.8476550000
 H       -0.7023990000       -3.4328030000       -1.7654130000
 H       -0.7014970000        3.4339710000        2.1160030000
 H       -0.7414300000        0.9678700000        2.2017730000
 H        0.7023990000        3.4328030000       -1.7654130000
 H        0.7415750000        0.9694550000       -1.8476550000
 C       -0.0194600000        5.0002610000        0.2317500000
 C        0.4311810000        5.6930020000       -1.0261660000
 H        0.6152950000        5.2701430000        1.0775850000
 H       -1.0469970000        5.2700750000        0.4819210000
 H        1.4705400000        5.4757510000       -1.2777150000
 H        0.3660400000        6.7666130000       -0.8460810000
 H       -0.2114820000        5.4747990000       -1.8806280000
 C        0.0194600000       -5.0002610000        0.2317500000
 C       -0.4311810000       -5.6930020000       -1.0261660000
 H       -0.6152950000       -5.2701430000        1.0775850000
 H        1.0469970000       -5.2700750000        0.4819210000
 H       -1.4705400000       -5.4757510000       -1.2777150000
 H       -0.3660400000       -6.7666130000       -0.8460810000
 H        0.2114820000       -5.4747990000       -1.8806280000
