37
 energy:      -692.0355744630
 N        3.7332780000       -0.2010230000       -0.0448280000
 C        3.0467840000        0.8322890000        0.4541790000
 C        1.6673520000        0.8415180000        0.4438800000
 C        3.0831350000       -1.2563400000       -0.5647750000
 C        1.7114870000       -1.3051770000       -0.5942150000
 C        0.9676250000       -0.2386270000       -0.0844400000
 H        3.7003060000       -2.0542700000       -0.9571750000
 H        1.2356790000       -2.1688100000       -1.0396540000
 H        3.6225830000        1.6480790000        0.8650470000
 H        1.1575150000        1.6912140000        0.8781450000
 C       -0.5107840000       -0.2628390000       -0.1047770000
 C       -1.2134950000       -1.4368600000        0.1679280000
 C       -2.5832390000       -1.4132000000        0.1375570000
 C       -1.2431800000        0.8789470000       -0.3994860000
 C       -2.6324110000        0.8670170000       -0.4312110000
 N       -3.2695390000       -0.2947810000       -0.1579050000
 H       -0.7461760000        1.8086390000       -0.6431530000
 H       -0.7140970000       -2.3608580000        0.4263070000
 H       -3.1773450000       -2.2921250000        0.3495070000
 C       -4.7526670000       -0.3802040000       -0.1310610000
 C        5.2290390000       -0.2362270000       -0.0496040000
 C       -3.4101860000        2.0852640000       -0.7764270000
 H       -3.9251420000        1.9615780000       -1.7334310000
 H       -2.7434240000        2.9395360000       -0.8659100000
 H       -4.1634690000        2.3160920000       -0.0219600000
 C       -5.3056700000       -0.1277680000        1.2569800000
 H       -5.0074010000       -1.3789430000       -0.4839740000
 H       -5.1380750000        0.3291660000       -0.8588740000
 H       -4.9393740000       -0.8647510000        1.9729990000
 H       -6.3922230000       -0.2090260000        1.2197650000
 H       -5.0566930000        0.8678430000        1.6253520000
 C        5.8976500000        0.9743720000        0.5444700000
 H        5.5161680000       -0.3697770000       -1.0940350000
 H        5.5034960000       -1.1420650000        0.4937540000
 H        5.6746000000        1.8906330000       -0.0045400000
 H        6.9745340000        0.8168940000        0.4751740000
 H        5.6637240000        1.1086040000        1.6018040000
