30
 energy:      -650.2969055240
 C        3.4916860000        0.0954460000        0.2664120000
 C        2.7777400000        1.2617800000        0.3709630000
 C        1.3823660000        1.2592250000        0.1886720000
 C        2.8219040000       -1.0367580000       -0.1644100000
 N        1.4968980000       -1.0668530000       -0.3312040000
 C        0.7197130000        0.0276910000       -0.0235740000
 C        0.6590220000        2.4843650000        0.1479880000
 C       -0.6590120000        2.4843670000       -0.1479830000
 C       -1.3823600000        1.2592300000       -0.1886680000
 C       -0.7197120000        0.0276930000        0.0235820000
 H        4.5628710000        0.0579110000        0.4126270000
 H        3.3511620000       -1.9386470000       -0.4471870000
 H        3.2793070000        2.2008170000        0.5762950000
 H        1.2020230000        3.4105820000        0.2902610000
 H       -1.2020090000        3.4105850000       -0.2902580000
 C       -2.7777330000        1.2617880000       -0.3709670000
 C       -3.4916820000        0.0954560000       -0.2664220000
 N       -1.4969020000       -1.0668490000        0.3312050000
 C       -2.8219060000       -1.0367510000        0.1644010000
 H       -3.3511680000       -1.9386380000        0.4471730000
 H       -4.5628670000        0.0579240000       -0.4126460000
 H       -3.2792960000        2.2008270000       -0.5763020000
 C        0.9833180000       -2.2204710000       -1.1027190000
 H        1.5906240000       -2.3126180000       -2.0012460000
 H       -0.0418330000       -2.0433360000       -1.4065080000
 H        1.0618140000       -3.1345490000       -0.5187100000
 C       -0.9833330000       -2.2204690000        1.1027260000
 H        0.0418150000       -2.0433400000        1.4065230000
 H       -1.0618310000       -3.1345470000        0.5187160000
 H       -1.5906480000       -2.3126110000        2.0012480000
