51
 energy:     -1150.1539612800
 C       -3.4520670000        1.3378230000        0.2584160000
 C       -2.8376960000        0.1110520000        0.0335060000
 C       -2.6973470000        2.4361910000        0.5920890000
 C       -1.4067740000        0.1025700000       -0.0525530000
 N       -1.3610250000        2.4216040000        0.5712790000
 C       -0.6903970000        1.3053090000        0.1222830000
 C       -0.6801640000       -1.0800050000       -0.3467030000
 C        0.6745130000       -1.0974560000       -0.3041930000
 C        1.4235760000        0.0987590000       -0.1519940000
 C        0.7238020000        1.3228010000       -0.1188570000
 C        2.8574990000        0.1023570000       -0.1685740000
 C        3.4812190000        1.3317530000       -0.3453940000
 C        2.7377570000        2.4741680000       -0.5127310000
 N        1.4049860000        2.4866440000       -0.4001680000
 H       -4.5289280000        1.4116940000        0.3202230000
 H       -3.1559100000        3.3461800000        0.9571860000
 H       -1.2286780000       -1.9782090000       -0.5911370000
 H        1.2120300000       -2.0189780000       -0.4776060000
 C        0.6789120000        3.6951760000       -0.8414850000
 C        0.0443500000        4.4609990000        0.2968750000
 H       -0.0752290000        3.3600090000       -1.5555010000
 H        1.3850040000        4.3130550000       -1.3915490000
 C       -0.6310550000        3.5066730000        1.2568570000
 H       -0.6683320000        5.1716600000       -0.1261030000
 H        0.7849270000        5.0412460000        0.8504570000
 H       -1.3413040000        4.0216920000        1.9001240000
 H        0.0992130000        3.0245090000        1.9085140000
 H        4.5596250000        1.4060290000       -0.3701030000
 H        3.2012570000        3.4228330000       -0.7502100000
 C       -3.6616100000       -1.0853850000       -0.0866120000
 C       -4.8285280000       -1.0327160000       -0.8612430000
 C       -5.6467160000       -2.1408690000       -0.9646540000
 C       -5.3382900000       -3.3005950000       -0.2642640000
 C       -4.2022590000       -3.3535650000        0.5335120000
 C       -3.3588320000       -2.2615350000        0.6134270000
 H       -2.4991630000       -2.2996650000        1.2713710000
 H       -5.0702470000       -0.1349410000       -1.4183430000
 H       -6.5297950000       -2.1014290000       -1.5895040000
 H       -5.9900290000       -4.1626280000       -0.3334940000
 H       -3.9798760000       -4.2473890000        1.1023570000
 C        3.6529620000       -1.1056370000       -0.0167400000
 C        3.3120410000       -2.0819250000        0.9311910000
 C        4.1195140000       -3.1882200000        1.1115520000
 C        5.2591110000       -3.3528010000        0.3336810000
 C        5.6040660000       -2.3959550000       -0.6134350000
 C        4.8195820000       -1.2713490000       -0.7769640000
 H        5.0866920000       -0.5390390000       -1.5297190000
 H        2.4475990000       -1.9429330000        1.5692610000
 H        3.8680090000       -3.9213590000        1.8673190000
 H        5.8842890000       -4.2264220000        0.4704570000
 H        6.4880990000       -2.5293650000       -1.2237320000
