32
 energy:      -651.5204709920
 C       -3.4929990000       -0.1179180000        0.2125590000
 C       -2.9105470000        1.0141580000       -0.3140680000
 C       -1.5204680000        1.1252930000       -0.4679970000
 C       -2.6816070000       -1.1917990000        0.5129850000
 N       -1.3569880000       -1.0902770000        0.3830140000
 C       -0.7402220000        0.0612490000       -0.0177030000
 C        0.7402220000        0.0612490000        0.0177030000
 N        1.3569880000       -1.0902770000       -0.3830140000
 C       -0.5109010000       -2.2805560000        0.5560950000
 C        0.5109010000       -2.2805560000       -0.5560950000
 H       -1.1420810000       -3.1647790000        0.4975060000
 H       -0.0353070000       -2.2526220000        1.5393290000
 H        0.0353070000       -2.2526220000       -1.5393290000
 H        1.1420810000       -3.1647790000       -0.4975060000
 C        1.5204680000        1.1252930000        0.4679970000
 C        2.9105470000        1.0141580000        0.3140680000
 C        3.4929990000       -0.1179180000       -0.2125590000
 C        2.6816070000       -1.1917990000       -0.5129850000
 H       -4.5642140000       -0.2045770000        0.3377740000
 H       -3.0663030000       -2.1499050000        0.8374060000
 H        4.5642140000       -0.2045770000       -0.3377740000
 H        3.0663030000       -2.1499050000       -0.8374060000
 H       -3.5355820000        1.8385480000       -0.6396210000
 H        3.5355820000        1.8385480000        0.6396210000
 C        0.9818550000        2.3268640000        1.1719600000
 H       -0.0598780000        2.2238510000        1.4644720000
 H        1.0899750000        3.2262040000        0.5620960000
 H        1.5690170000        2.4914760000        2.0777910000
 C       -0.9818550000        2.3268640000       -1.1719600000
 H       -1.5690170000        2.4914760000       -2.0777910000
 H        0.0598780000        2.2238510000       -1.4644720000
 H       -1.0899750000        3.2262040000       -0.5620960000
