40
 energy:      -731.3374076670
 N       -3.4985180000        0.0105650000        0.0165810000
 C       -2.8386330000        1.1167990000       -0.4188640000
 C       -1.4556280000        1.1149770000       -0.4174690000
 C       -2.8387210000       -1.1084630000        0.4197090000
 C       -1.4566090000       -1.1158020000        0.4092570000
 C       -0.7395320000        0.0005620000       -0.0006880000
 H       -0.9528240000       -2.0083510000        0.7544890000
 H       -0.9494070000        1.9983530000       -0.7819440000
 C        0.7395320000       -0.0005670000       -0.0006690000
 C        1.4565960000        1.1158830000        0.4090650000
 C        2.8387070000        1.1085440000        0.4195540000
 C        1.4556410000       -1.1150660000       -0.4172040000
 C        2.8386470000       -1.1168880000       -0.4185680000
 N        3.4985180000       -0.0105640000        0.0166660000
 H        0.9494300000       -1.9985170000       -0.7815090000
 H        0.9528030000        2.0085020000        0.7541040000
 C        4.9679640000        0.0029250000        0.0329120000
 H        5.3480120000       -1.0105360000        0.0234480000
 H        5.3164350000        0.4969240000        0.9347120000
 H        5.3405830000        0.5381750000       -0.8414440000
 C       -4.9679650000       -0.0028790000        0.0327800000
 H       -5.3479720000        1.0106020000        0.0234070000
 H       -5.3164870000       -0.4969530000        0.9345160000
 H       -5.3405760000       -0.5380250000       -0.8416430000
 C        3.5973790000       -2.3028710000       -0.8990240000
 H        2.9059830000       -3.0472300000       -1.2864700000
 H        4.1694600000       -2.7684440000       -0.0919890000
 H        4.2957270000       -2.0410570000       -1.6964780000
 C       -3.6105660000       -2.2988940000        0.8617990000
 H       -4.3406720000       -2.6100730000        0.1120170000
 H       -4.1556380000       -2.0993450000        1.7887360000
 H       -2.9345950000       -3.1300270000        1.0469760000
 C        3.6105510000        2.2990540000        0.8614280000
 H        2.9345890000        3.1302410000        1.0463920000
 H        4.3407070000        2.6100550000        0.1116210000
 H        4.1555710000        2.0996880000        1.7884350000
 C       -3.5973630000        2.3026780000       -0.8995730000
 H       -4.2957290000        2.0406910000       -1.6969550000
 H       -2.9059700000        3.0469500000       -1.2871930000
 H       -4.1694310000        2.7684310000       -0.0926320000
