29
 energy:     -1461.6757595900
 C        2.3235080000       -1.6250250000        0.0097160000
 C        2.6263610000       -0.2645530000       -0.0149820000
 C        1.0133620000       -2.0538620000       -0.0761450000
 C       -0.0226400000       -1.1268860000       -0.1671180000
 C        0.2795130000        0.2370730000       -0.2081940000
 C        1.6030270000        0.6614600000       -0.1470410000
 H        3.1433490000       -2.3292290000        0.0819840000
 H        0.7627250000       -3.1074730000       -0.0745080000
 H        1.8380350000        1.7161500000       -0.2085430000
 C       -1.4108970000       -1.6065920000       -0.2632360000
 C       -2.4998370000       -0.5992140000       -0.0668620000
 C       -2.2001000000        0.7799410000       -0.1100200000
 C       -0.7966490000        1.2355070000       -0.3699360000
 C       -3.8154210000       -1.0193180000        0.1762930000
 C       -4.8057410000       -0.0648540000        0.3806300000
 C       -3.2177350000        1.7221750000        0.0952820000
 C       -4.5127140000        1.2792720000        0.3422390000
 O       -1.6635090000       -2.7767240000       -0.4744600000
 O       -0.5576860000        2.3786250000       -0.6948420000
 O       -4.1291780000       -2.3340570000        0.2380770000
 H       -5.0567700000       -2.4055680000        0.4721980000
 O       -2.9524360000        3.0475800000        0.0808850000
 H       -3.7576460000        3.5154960000        0.3109520000
 S        4.3367230000        0.2699280000        0.1650140000
 O        4.4843700000        0.3676870000        1.6073230000
 O        4.3941060000        1.5377590000       -0.5364080000
 O        5.1023110000       -0.8031020000       -0.4443640000
 H       -5.8240180000       -0.3887620000        0.5761480000
 H       -5.3012740000        2.0076380000        0.5080880000
