29
 energy:     -1461.7208990600
 C        5.3264660000       -0.0628290000        0.0000160000
 C        5.0241340000       -1.4224410000        0.0000510000
 C        4.3089210000        0.8721570000       -0.0000010000
 C        2.9783990000        0.4600440000        0.0000180000
 C        2.6743280000       -0.9046060000        0.0000410000
 C        3.7065130000       -1.8395990000        0.0000630000
 C        1.9023880000        1.4719190000        0.0000240000
 C        0.5447130000        1.0060170000        0.0000350000
 C        0.2265030000       -0.3863520000        0.0000120000
 C        1.2704820000       -1.3759990000        0.0000200000
 H        3.4425240000       -2.8895790000        0.0000800000
 H        5.8232910000       -2.1547770000        0.0000630000
 H        6.3605590000        0.2621680000        0.0000060000
 H        4.5135670000        1.9353410000       -0.0000200000
 C       -1.1154120000       -0.8054780000       -0.0000220000
 C       -2.1601030000        0.1703870000       -0.0000150000
 C       -1.8346770000        1.4961800000        0.0000180000
 C       -0.4971770000        1.9394640000        0.0000540000
 H       -2.6396080000        2.2211430000        0.0000360000
 O        1.0416680000       -2.5981720000        0.0001400000
 O        2.1957620000        2.6832340000       -0.0001240000
 O       -1.4279160000       -2.0797100000       -0.0001030000
 H       -0.5687280000       -2.5764910000       -0.0001690000
 O       -0.2637240000        3.2456890000        0.0001550000
 H        0.7274270000        3.3368620000        0.0002820000
 S       -3.9108320000       -0.2986610000       -0.0000620000
 O       -4.5942170000        0.9812650000       -0.0001360000
 O       -4.0519000000       -1.0580270000       -1.2246350000
 O       -4.0519950000       -1.0579360000        1.2245560000
