18
 energy:      -534.7008122980
 C       -2.6608700000        0.6954260000       -0.0002920000
 C       -1.4642380000        1.3915700000       -0.0000110000
 C       -0.2594790000        0.6990100000        0.0002840000
 C       -0.2594790000       -0.6990100000        0.0003320000
 C       -1.4642380000       -1.3915690000        0.0000310000
 C       -2.6608700000       -0.6954260000       -0.0002750000
 H       -3.5997620000       -1.2358600000       -0.0004890000
 H       -3.5997620000        1.2358600000       -0.0005330000
 H       -1.4383820000        2.4741020000       -0.0000250000
 H       -1.4383830000       -2.4741020000        0.0000930000
 C        1.0187070000        1.4535520000        0.0005520000
 C        2.2684430000        0.6671130000       -0.0002000000
 C        1.0187060000       -1.4535520000        0.0008400000
 C        2.2684430000       -0.6671130000       -0.0001830000
 O        1.0548030000        2.6665070000       -0.0000920000
 O        1.0548020000       -2.6665070000       -0.0004160000
 H        3.1843550000       -1.2471270000       -0.0007310000
 H        3.1843550000        1.2471260000       -0.0007320000
