25
 energy:      -688.4224243830
 C       -3.5799370000       -1.2058200000        0.0000490000
 C       -3.8775410000        0.1526590000        0.0000570000
 C       -2.2618770000       -1.6292500000        0.0000010000
 C       -1.2340420000       -0.6935420000       -0.0000380000
 C       -2.8574210000        1.0892130000        0.0000170000
 H       -4.3812110000       -1.9348960000        0.0000800000
 H       -4.9104490000        0.4794670000        0.0000940000
 H       -2.0054620000       -2.6812200000       -0.0000060000
 C       -1.5332670000        0.6705300000       -0.0000320000
 H       -3.0630780000        2.1523340000        0.0000200000
 C        0.1741190000       -1.1567240000       -0.0000890000
 C        1.2427060000       -0.1268440000       -0.0000390000
 C        0.9430250000        1.1774100000       -0.0000300000
 C       -0.4403100000        1.6765640000       -0.0000870000
 O        0.4624800000       -2.3371260000       -0.0000310000
 O       -0.6694270000        2.8692210000        0.0000160000
 C        2.6391220000       -0.6474230000       -0.0000010000
 O        3.5531030000        0.4059010000        0.0000490000
 H        2.7766580000       -1.2983610000       -0.8770900000
 H        2.7765970000       -1.2983910000        0.8770750000
 C        4.8828180000       -0.0410080000        0.0000750000
 H        5.5225680000        0.8401150000        0.0001150000
 H        5.1036590000       -0.6428700000       -0.8905810000
 H        5.1036090000       -0.6429140000        0.8907140000
 H        1.7234910000        1.9281690000        0.0000040000
