21
 energy:     -1157.7951771300
 C        3.6930510000       -1.4762930000       -0.0001320000
 C        2.3323020000       -1.7300170000       -0.0000720000
 C        1.4252490000       -0.6764720000        0.0000080000
 C        1.8943900000        0.6352870000        0.0000570000
 C        4.1596450000       -0.1652920000       -0.0001070000
 C        3.2616330000        0.8875000000       -0.0000140000
 C       -0.0441790000       -0.9813820000       -0.0000020000
 C       -0.9732250000        0.1800490000       -0.0000060000
 C       -0.4936610000        1.4341610000        0.0000350000
 C        0.9292760000        1.7675040000        0.0002620000
 H        4.3968160000       -2.3011130000       -0.0002050000
 H        5.2259780000        0.0306980000       -0.0001510000
 H        1.9399830000       -2.7395620000       -0.0001060000
 H        3.5914610000        1.9192990000        0.0000350000
 H       -1.1932220000        2.2624120000       -0.0000570000
 O       -0.4133160000       -2.1317470000        0.0002020000
 O        1.3202810000        2.9228110000       -0.0001030000
 S       -2.7606360000       -0.0921770000       -0.0000200000
 O       -2.9813750000       -0.8317090000        1.2254480000
 O       -3.3061440000        1.2525410000        0.0008130000
 O       -2.9816610000       -0.8302930000       -1.2262810000
