27
 energy:      -801.6940566520
 C        0.0558290000       -2.0303300000        0.0000260000
 C        0.8089810000       -0.8549160000       -0.0000430000
 C       -1.3235150000       -1.9864820000        0.0000370000
 C       -1.9780370000       -0.7594430000       -0.0000220000
 C       -1.2299940000        0.4185690000       -0.0000940000
 C        0.1598810000        0.3686660000       -0.0001030000
 H        0.7191890000        1.2945300000       -0.0001660000
 H        0.5603270000       -2.9912600000        0.0000690000
 H       -1.9172280000       -2.8919340000        0.0000860000
 C       -3.4603910000       -0.7189880000       -0.0000260000
 C       -4.0997200000        0.6112920000        0.0002040000
 C       -1.9109110000        1.7396380000       -0.0001830000
 C       -3.3878540000        1.7395830000        0.0001360000
 H       -3.8525810000        2.7190170000        0.0002810000
 H       -5.1838090000        0.6086750000        0.0004050000
 O       -4.1348160000       -1.7283150000        0.0002620000
 O       -1.2962990000        2.7847340000        0.0000130000
 C        2.3063000000       -0.9700630000       -0.0000400000
 O        2.8864180000        0.3166210000       -0.0002070000
 H        2.6225550000       -1.5346710000       -0.8842000000
 H        2.6225680000       -1.5344480000        0.8842570000
 C        4.2306040000        0.4838230000       -0.0002020000
 O        4.6650180000        1.5963890000       -0.0001570000
 C        5.0874770000       -0.7503860000        0.0001740000
 H        4.8934540000       -1.3659960000       -0.8802920000
 H        4.8931630000       -1.3656720000        0.8808050000
 H        6.1278970000       -0.4394470000        0.0002910000
