21
 energy:     -3147.2429577300
 C        0.5233180000       -1.5522700000        0.6023090000
 C        0.9634980000       -0.2341440000        0.7366420000
 C       -0.7920610000       -1.8292550000        0.2839980000
 C       -1.6947710000       -0.7892690000        0.0934050000
 C        0.0595360000        0.8020990000        0.5458330000
 C       -1.2642140000        0.5327300000        0.2274920000
 C       -3.1063600000       -1.0930910000       -0.2474250000
 C       -4.0162770000        0.0535790000       -0.4411980000
 C       -3.6061820000        1.3167570000       -0.3116450000
 C       -2.2131620000        1.6592520000        0.0365630000
 H        1.2263230000       -2.3650520000        0.7465940000
 H       -1.1446870000       -2.8476490000        0.1793950000
 H        0.3665500000        1.8372140000        0.6414170000
 H       -5.0393100000       -0.2006780000       -0.6941620000
 H       -4.2727120000        2.1601640000       -0.4516660000
 O       -3.5126320000       -2.2301980000       -0.3663680000
 O       -1.8736590000        2.8174800000        0.1583320000
 C        2.3798710000        0.0560850000        1.0867490000
Br        3.5213350000        0.0815220000       -0.5058900000
 H        2.8100960000       -0.7058290000        1.7311980000
 H        2.4981810000        1.0354470000        1.5413520000
