22
 energy:      -649.1578688950
 C        3.1822740000       -1.1695620000       -0.0001620000
 C        3.4601230000        0.1931110000       -0.0001920000
 C        1.8704660000       -1.6120300000       -0.0000040000
 C        2.4265040000        1.1147990000       -0.0000690000
 H        3.9940280000       -1.8869430000       -0.0002570000
 H        4.4881760000        0.5348700000       -0.0003160000
 C        0.8291780000       -0.6912610000        0.0001280000
 C        1.1085410000        0.6770320000        0.0000850000
 H        1.6293840000       -2.6676170000        0.0000370000
 H        2.6167860000        2.1807720000       -0.0000950000
 C       -0.5721750000       -1.1743510000        0.0003570000
 C       -1.6551050000       -0.1599120000        0.0001090000
 C       -1.3748510000        1.1486430000        0.0000750000
 C        0.0011370000        1.6675090000        0.0001950000
 O       -0.8440240000       -2.3588360000       -0.0000270000
 O        0.2137740000        2.8631800000        0.0000280000
 H       -2.1665270000        1.8875950000       -0.0000380000
 C       -3.0439630000       -0.7001490000       -0.0000340000
 O       -3.9676000000        0.3576690000       -0.0002510000
 H       -3.1600970000       -1.3497470000        0.8777300000
 H       -3.1598580000       -1.3498940000       -0.8777230000
 H       -4.8518850000       -0.0081210000       -0.0002580000
