27
 energy:      -801.7098186830
 C        4.5249140000        0.2483320000       -0.0000890000
 C        4.2662360000       -1.1181600000       -0.0000980000
 C        3.4786240000        1.1554680000       -0.0000410000
 C        2.1670620000        0.6985580000        0.0000010000
 C        2.9610000000       -1.5796240000       -0.0000580000
 C        1.9069010000       -0.6735520000       -0.0000110000
 C        1.0460640000        1.6710280000        0.0000650000
 C       -0.3235810000        1.1321320000        0.0000680000
 C        0.5136450000       -1.1776620000        0.0000220000
 C       -0.5877230000       -0.1794210000        0.0000590000
 H        5.5480210000        0.6044070000       -0.0001200000
 H        3.6541890000        2.2239170000       -0.0000310000
 H        5.0880110000       -1.8239320000       -0.0001360000
 H        2.7352280000       -2.6385440000       -0.0000650000
 H       -1.1180740000        1.8677680000        0.0000860000
 O        1.2358090000        2.8703810000        0.0000210000
 O        0.2573140000       -2.3645170000        0.0000280000
 C       -1.9583940000       -0.7619970000        0.0000790000
 O       -2.9157430000        0.2839690000        0.0001170000
 H       -2.0969350000       -1.4074990000        0.8716020000
 H       -2.0969700000       -1.4074730000       -0.8714580000
 C       -4.2050160000       -0.1100750000        0.0001140000
 O       -4.5371780000       -1.2618940000       -0.0000990000
 C       -5.1243620000        1.0706000000       -0.0001020000
 H       -4.9362450000        1.6887490000       -0.8790150000
 H       -4.9365840000        1.6887830000        0.8788570000
 H       -6.1544730000        0.7265570000       -0.0002960000
