21
 energy:     -1033.4461406000
 C        1.2072840000       -1.4845970000        0.4359850000
 C        1.6199070000       -0.1538960000        0.5182590000
 C       -0.1195860000       -1.8004370000        0.2168080000
 C       -1.0607130000       -0.7867610000        0.0762440000
 C       -0.6572730000        0.5475450000        0.1588170000
 C        0.6789800000        0.8554670000        0.3772570000
 C       -2.4848250000       -1.1321160000       -0.1570630000
 C       -3.4365720000       -0.0126100000       -0.3021220000
 C       -3.0517570000        1.2625080000       -0.2222870000
 C       -1.6466930000        1.6459440000        0.0184260000
 H        1.9405180000       -2.2763500000        0.5414470000
 H       -0.4519590000       -2.8289510000        0.1530280000
 H        0.9647980000        1.8993970000        0.4349430000
 H       -4.4679970000       -0.2972480000       -0.4763540000
 H       -3.7485360000        2.0863850000       -0.3267830000
 C        3.0561970000        0.1780470000        0.7524360000
Cl        4.0012270000        0.1044880000       -0.7698830000
 H        3.5254990000       -0.5281310000        1.4345750000
 H        3.1745510000        1.1866800000        1.1412490000
 O       -2.8681570000       -2.2810490000       -0.2286750000
 O       -1.3302720000        2.8144680000        0.0973430000
