30
 energy:      -650.3226968380
 C       -3.2283460000        0.6613440000        0.0748450000
 C       -2.3467960000        1.6857720000        0.2078040000
 C       -0.9607790000        1.4514770000        0.1527860000
 C       -0.4927480000        0.1090410000        0.0384880000
 N       -2.7731680000       -0.5997350000       -0.1318370000
 C       -1.4729940000       -0.8731840000       -0.1465320000
 C       -0.0644470000        2.5501430000        0.1547370000
 C        1.2555990000        2.3337510000       -0.0219890000
 C        1.7868590000        1.0115820000       -0.0946400000
 C        0.9420320000       -0.1154700000        0.0199680000
 C        3.1721580000        0.8442340000       -0.2498150000
 C        3.7168540000       -0.4134220000       -0.2583180000
 N        1.5493500000       -1.3459050000        0.1216510000
 C        2.8739630000       -1.4817160000       -0.0303200000
 H       -4.3022670000        0.7893580000        0.0976600000
 H       -2.7199280000        2.6941900000        0.3319920000
 H       -1.2437140000       -1.9026820000       -0.3558450000
 H       -0.4600090000        3.5535470000        0.2496410000
 H        1.9490020000        3.1637180000       -0.0880510000
 H        3.2555170000       -2.4896880000        0.0622370000
 H        3.8002120000        1.7214890000       -0.3549530000
 H        4.7767610000       -0.5878770000       -0.3853200000
 C       -3.7653730000       -1.6654480000       -0.3515030000
 H       -4.3688990000       -1.4142940000       -1.2225550000
 H       -4.4015790000       -1.7444250000        0.5291720000
 H       -3.2554740000       -2.6094930000       -0.5204850000
 C        0.8348470000       -2.5782900000        0.4939480000
 H        0.0880530000       -2.3567160000        1.2522940000
 H        1.5540140000       -3.2701620000        0.9226260000
 H        0.3900760000       -3.0463710000       -0.3838610000
