32
 energy:      -651.5419502280
 C       -0.0728300000        3.4886060000       -0.0867640000
 C        0.2000150000        2.8734600000        1.1377930000
 C        0.2354650000        1.4754640000        1.1516510000
 C       -0.2773870000        2.7274060000       -1.2086210000
 N       -0.2354650000        1.3849430000       -1.1581870000
 C        0.0009790000        0.7371860000        0.0096240000
 C       -0.0009790000       -0.7371860000        0.0096240000
 N        0.2354650000       -1.3849430000       -1.1581870000
 C       -0.4671150000        0.5910030000       -2.3722940000
 C        0.4671150000       -0.5910030000       -2.3722940000
 H       -0.2759070000        1.2193920000       -3.2400620000
 H       -1.5134820000        0.2763600000       -2.3939120000
 H        1.5134820000       -0.2763600000       -2.3939120000
 H        0.2759070000       -1.2193920000       -3.2400620000
 C       -0.2354650000       -1.4754640000        1.1516510000
 C       -0.2000150000       -2.8734600000        1.1377930000
 C        0.0728300000       -3.4886060000       -0.0867640000
 C        0.2773870000       -2.7274060000       -1.2086210000
 H       -0.1110140000        4.5671990000       -0.1743780000
 H       -0.4759980000        3.1635380000       -2.1791620000
 H        0.1110140000       -4.5671990000       -0.1743780000
 H        0.4759980000       -3.1635380000       -2.1791620000
 H        0.4748810000        0.9624210000        2.0729520000
 H       -0.4748810000       -0.9624210000        2.0729520000
 C       -0.4373120000       -3.6715240000        2.3654060000
 H       -0.8183130000       -3.0668650000        3.1857400000
 H        0.5014670000       -4.1346070000        2.6875800000
 H       -1.1343340000       -4.4884020000        2.1677820000
 C        0.4373120000        3.6715240000        2.3654060000
 H        0.8183130000        3.0668650000        3.1857400000
 H       -0.5014670000        4.1346070000        2.6875800000
 H        1.1343340000        4.4884020000        2.1677820000
