38
 energy:      -730.1027632470
 C       -3.4672500000       -0.4144440000       -0.3519540000
 C       -2.8615620000       -1.4306780000        0.3887290000
 C       -1.4699600000       -1.3672660000        0.5140390000
 C       -2.7048550000        0.5740890000       -0.9190650000
 N       -1.3658840000        0.6108840000       -0.7821910000
 C       -0.7394880000       -0.3492980000       -0.0622770000
 H       -4.5399330000       -0.3928540000       -0.4985680000
 H       -3.1415870000        1.3667500000       -1.5124720000
 H       -0.9428610000       -2.1224930000        1.0834460000
 C        0.7394900000       -0.3492980000        0.0622760000
 N        1.3658860000        0.6108850000        0.7821910000
 C       -0.6379720000        1.7308870000       -1.4257230000
 C       -0.5477080000        2.9595210000       -0.5292730000
 H       -1.1934130000        1.9650530000       -2.3323760000
 H        0.3395130000        1.3633740000       -1.7388530000
 C        0.6379730000        1.7308860000        1.4257240000
 C        0.5477060000        2.9595210000        0.5292750000
 H        1.1934140000        1.9650530000        2.3323770000
 H       -0.3395120000        1.3633720000        1.7388540000
 H       -1.5238430000        3.1246850000       -0.0636130000
 H       -0.3843440000        3.8191580000       -1.1826440000
 H        1.5238410000        3.1246870000        0.0636150000
 H        0.3843420000        3.8191570000        1.1826470000
 C        1.4699620000       -1.3672630000       -0.5140430000
 C        2.8615660000       -1.4306730000       -0.3887340000
 C        3.4672520000       -0.4144390000        0.3519460000
 H        0.9428640000       -2.1224880000       -1.0834520000
 C        2.7048560000        0.5740920000        0.9190620000
 H        3.1415890000        1.3667540000        1.5124680000
 H        4.5399370000       -0.3928440000        0.4985550000
 C       -3.6542830000       -2.5280700000        0.9960790000
 H       -4.5311500000       -2.1331930000        1.5128940000
 H       -3.0680230000       -3.1258600000        1.6908970000
 H       -4.0290260000       -3.1892480000        0.2077130000
 C        3.6542790000       -2.5280770000       -0.9960710000
 H        3.0681070000       -3.1256490000       -1.6911520000
 H        4.0286710000       -3.1894690000       -0.2077140000
 H        4.5313610000       -2.1332660000       -1.5125620000
