22
 energy:      -495.5859356570
 C        0.5614380000        2.8594400000        1.0422470000
 C       -0.0126670000        3.5081560000       -0.0399740000
 C        0.5744900000        1.4661160000        1.0959710000
 C        0.0150100000        0.7402030000        0.0671240000
 C       -0.5744900000        2.7507570000       -1.0457760000
 N       -0.5439260000        1.4125050000       -0.9672850000
 C       -0.0150100000       -0.7402030000        0.0671240000
 C       -0.5744900000       -1.4661160000        1.0959710000
 C       -0.5614380000       -2.8594400000        1.0422470000
 C        0.0126670000       -3.5081560000       -0.0399740000
 N        0.5439260000       -1.4125050000       -0.9672850000
 C        0.5744900000       -2.7507570000       -1.0457760000
 H        1.0065690000        3.4314060000        1.8483340000
 H        1.0358490000        0.9486770000        1.9272970000
 H       -0.0371420000        4.5880260000       -0.1085300000
 H       -1.0623430000        3.1740490000       -1.9148760000
 H       -1.0358490000       -0.9486770000        1.9272970000
 H       -1.0065690000       -3.4314060000        1.8483340000
 H        1.0623430000       -3.1740490000       -1.9148760000
 H        0.0371420000       -4.5880260000       -0.1085300000
 H       -1.0179970000        0.8938300000       -1.6987880000
 H        1.0179970000       -0.8938300000       -1.6987880000
