24
 energy:      -613.2713683220
 C        3.2678690000       -0.6954580000       -0.0003600000
 C        3.2678690000        0.6954590000       -0.0003740000
 C        2.0707740000       -1.3912680000       -0.0000550000
 C        0.8668380000       -0.6968530000        0.0002460000
 C        0.8668380000        0.6968540000        0.0002080000
 C        2.0707740000        1.3912680000       -0.0000890000
 C       -0.4124150000       -1.4457780000        0.0006960000
 C       -1.6827540000       -0.6748980000        0.0001710000
 C       -1.6827540000        0.6748980000        0.0001280000
 C       -0.4124150000        1.4457780000        0.0004660000
 H        4.2067430000       -1.2362730000       -0.0005800000
 H        4.2067430000        1.2362730000       -0.0006140000
 H        2.0448800000       -2.4736700000       -0.0000100000
 H        2.0448810000        2.4736700000       -0.0001040000
 O       -0.4235400000       -2.6610480000       -0.0001780000
 O       -0.4235410000        2.6610480000        0.0000740000
 C       -2.9475380000       -1.4657310000       -0.0001870000
 H       -2.7298100000       -2.5311260000        0.0000220000
 H       -3.5547520000       -1.2276870000       -0.8777990000
 H       -3.5553830000       -1.2274690000        0.8769270000
 C       -2.9475380000        1.4657300000       -0.0002120000
 H       -3.5550520000        1.2272340000       -0.8774890000
 H       -2.7298110000        2.5311250000       -0.0005820000
 H       -3.5550840000        1.2279190000        0.8772370000
