41
 energy:      -769.4045120550
 C        3.5183760000       -0.1424360000       -0.1734840000
 C        2.8615950000       -1.2558870000        0.3827020000
 C        2.7388990000        0.9017770000       -0.6305510000
 N        1.3970960000        0.8971510000       -0.5630800000
 C        1.4674400000       -1.2305800000        0.4440780000
 C        0.7394240000       -0.1571320000       -0.0231710000
 C       -0.7394240000       -0.1571320000        0.0231690000
 N       -1.3970950000        0.8971510000        0.5630790000
 C       -1.4674410000       -1.2305780000       -0.4440840000
 C       -2.8615960000       -1.2558830000       -0.3827090000
 C       -3.5183760000       -0.1424330000        0.1734810000
 C       -2.7388990000        0.9017780000        0.6305510000
 C        0.6291760000        2.0341700000       -1.1012690000
 C        0.0000010000        2.8754360000        0.0000010000
 H       -0.1294870000        1.6203530000       -1.7672180000
 H        1.3007080000        2.6321880000       -1.7132370000
 C       -0.6291750000        2.0341690000        1.1012690000
 H       -0.7422960000        3.5265670000       -0.4660240000
 H        0.7422980000        3.5265660000        0.4660270000
 H       -1.3007060000        2.6321860000        1.7132390000
 H        0.1294880000        1.6203510000        1.7672180000
 H       -0.9354080000       -2.0640200000       -0.8848890000
 H       -3.1821720000        1.7799820000        1.0820630000
 H        0.9354060000       -2.0640250000        0.8848780000
 C       -3.6261140000       -2.4203730000       -0.8933110000
 H       -2.9766040000       -3.1946870000       -1.2953200000
 H       -4.3237190000       -2.1076950000       -1.6756760000
 H       -4.2373190000       -2.8547810000       -0.0967850000
 C       -5.0016420000       -0.0713140000        0.2833500000
 H       -5.3843720000       -0.8995550000        0.8848770000
 H       -5.4668630000       -0.1547590000       -0.7019740000
 H       -5.3318330000        0.8606670000        0.7383600000
 C        5.0016420000       -0.0713150000       -0.2833460000
 H        5.4668580000       -0.1547740000        0.7019790000
 H        5.3318350000        0.8606740000       -0.7383410000
 H        5.3843750000       -0.8995460000       -0.8848840000
 C        3.6261120000       -2.4203730000        0.8933130000
 H        4.2374650000       -2.8546800000        0.0968480000
 H        2.9765940000       -3.1947560000        1.2951770000
 H        4.3235810000       -2.1077070000        1.6758080000
 H        3.1821730000        1.7799820000       -1.0820620000
