44
 energy:      -808.6835369510
 C        3.5144780000       -0.3710440000        0.1946880000
 C        2.8427750000       -1.3864430000       -0.5113240000
 C        1.4511930000       -1.3226020000       -0.5727120000
 C        2.7497850000        0.6148350000        0.7827950000
 N        1.4062980000        0.6537140000        0.7095680000
 C        0.7401930000       -0.3036070000        0.0274320000
 H        3.2074100000        1.4125070000        1.3537420000
 C       -0.7401930000       -0.3036070000       -0.0274320000
 N       -1.4062980000        0.6537140000       -0.7095680000
 C        0.7149340000        1.7746960000        1.3882270000
 C        0.5769840000        3.0026510000        0.4970660000
 H        1.3163990000        2.0101740000        2.2645130000
 H       -0.2455250000        1.4081950000        1.7512120000
 C       -0.7149340000        1.7746960000       -1.3882270000
 C       -0.5769840000        3.0026510000       -0.4970660000
 H       -1.3163990000        2.0101740000       -2.2645130000
 H        0.2455250000        1.4081950000       -1.7512110000
 H        1.5251520000        3.1637100000       -0.0243960000
 H        0.4531540000        3.8641270000        1.1566380000
 H       -1.5251520000        3.1637100000        0.0243960000
 H       -0.4531540000        3.8641270000       -1.1566380000
 C       -1.4511930000       -1.3226020000        0.5727120000
 C       -2.8427750000       -1.3864430000        0.5113240000
 C       -3.5144780000       -0.3710440000       -0.1946880000
 C       -2.7497850000        0.6148350000       -0.7827950000
 H       -3.2074100000        1.4125060000       -1.3537420000
 C       -3.5879240000       -2.4898200000        1.1660520000
 H       -2.9260010000       -3.1899800000        1.6707520000
 H       -4.1823180000       -3.0387890000        0.4298690000
 H       -4.2991890000       -2.0922090000        1.8957170000
 C       -4.9976270000       -0.3474670000       -0.3279130000
 H       -5.4736000000       -0.3105050000        0.6550190000
 H       -5.3557900000       -1.2557540000       -0.8187400000
 H       -5.3406120000        0.5090400000       -0.9053350000
 C        3.5879240000       -2.4898200000       -1.1660530000
 H        2.9259990000       -3.1899890000       -1.6707380000
 H        4.1823330000       -3.0387780000       -0.4298740000
 H        4.2991750000       -2.0922090000       -1.8957300000
 C        4.9976270000       -0.3474670000        0.3279130000
 H        5.3406130000        0.5090460000        0.9053260000
 H        5.4736010000       -0.3105160000       -0.6550190000
 H        5.3557890000       -1.2557490000        0.8187510000
 H        0.9020390000       -2.0837090000       -1.1125790000
 H       -0.9020390000       -2.0837080000        1.1125800000
