30
 energy:      -650.3459296890
 C       -3.5777220000        0.4053520000       -0.0000160000
 C       -2.7480040000        1.4838530000        0.0000050000
 C       -1.3527220000        1.3045070000        0.0000100000
 C       -0.8481170000       -0.0193310000       -0.0000050000
 N       -3.0745360000       -0.8568830000       -0.0000320000
 C       -1.7639300000       -1.0702600000       -0.0000250000
 C       -0.4637680000        2.4169300000        0.0000280000
 C        0.8751220000        2.2235630000        0.0000300000
 C        1.4188150000        0.9029760000        0.0000140000
 C        0.5801760000       -0.2341360000       -0.0000040000
 H       -4.6562890000        0.4886040000       -0.0000230000
 H       -3.1748900000        2.4785040000        0.0000130000
 H       -1.4624390000       -2.1078910000       -0.0000390000
 H       -0.8765400000        3.4180990000        0.0000390000
 H        1.5510010000        3.0706470000        0.0000440000
 C        2.8035440000        0.7195720000        0.0000170000
 N        3.3449810000       -0.4905150000        0.0000030000
 C        1.1995810000       -1.4942300000       -0.0000190000
 C        2.5601820000       -1.5964030000       -0.0000150000
 H        0.6359800000       -2.4164370000       -0.0000330000
 H        3.0755200000       -2.5472270000       -0.0000260000
 H        3.4847190000        1.5608760000        0.0000310000
 C       -4.0217750000       -1.9829390000        0.0000030000
 H       -4.6449750000       -1.9230590000       -0.8911710000
 H       -4.6443630000       -1.9235260000        0.8916390000
 H       -3.4719620000       -2.9195940000       -0.0004410000
 C        4.8068480000       -0.6637900000        0.0000040000
 H        5.2846380000        0.3115410000        0.0000320000
 H        5.0985570000       -1.2163440000       -0.8919580000
 H        5.0985500000       -1.2163920000        0.8919390000
