23
 energy:     -1374.5694683100
 C        4.3084270000        0.6949630000       -0.5571260000
 C        4.2816670000       -0.6874560000       -0.6492690000
 C        3.1763890000        1.3896040000       -0.1613640000
 C        2.0117730000        0.7105860000        0.1815340000
 C        1.9929620000       -0.6839550000        0.1042620000
 C        3.1163920000       -1.3703460000       -0.3321130000
 H        5.2094760000        1.2419130000       -0.8058500000
 H        3.1931280000        2.4733350000       -0.1087400000
 H        5.1588280000       -1.2350520000       -0.9692690000
 H        3.0773980000       -2.4508170000       -0.4049760000
 N        0.8839400000        1.4064310000        0.6089350000
 C       -0.4053990000        0.9577060000        0.3422130000
 C       -0.6796640000       -0.4116030000        0.2846310000
 S        0.5816190000       -1.5778840000        0.6577900000
 C       -1.4469480000        1.8578490000        0.1462100000
 C       -2.7402160000        1.4179640000       -0.0842360000
 C       -2.9911240000        0.0589860000       -0.1546900000
 C       -1.9640700000       -0.8569580000        0.0125600000
 H       -1.2444000000        2.9229440000        0.1835490000
 H       -3.5455230000        2.1269820000       -0.2206500000
 H       -2.1669700000       -1.9181940000       -0.0507140000
 H        0.9856280000        2.4076440000        0.5916080000
Cl       -4.5954220000       -0.5077450000       -0.4586940000
