27
 energy:      -665.0937713610
 H        0.3185380000        1.9823490000       -1.5036720000
 C        0.0381240000        1.9726410000       -0.4473840000
 C        3.4480760000       -1.5598050000       -0.2634040000
 C        2.0590140000       -1.5850770000       -0.2675800000
 C       -2.1071730000        0.8543420000       -0.2047460000
 N       -0.7729630000        0.7682270000       -0.1927520000
 H       -0.5696790000        2.8514950000       -0.2401980000
 H       -2.5358840000        1.8311100000       -0.3907080000
 C        4.1080740000       -0.3675190000       -0.0155200000
 C       -0.1273500000       -0.4068780000        0.0237140000
 C        1.3435080000       -0.4280530000       -0.0186980000
 C       -2.8964210000       -0.2656360000        0.0157890000
 C        3.3615500000        0.7700450000        0.2054460000
 H        5.1884970000       -0.3036330000       -0.0039010000
 C       -0.8803180000       -1.5422540000        0.2725530000
 C       -2.2634710000       -1.4830490000        0.2671020000
 N        2.0208960000        0.7290900000        0.1966480000
 C        1.2459300000        1.9534430000        0.4529170000
 H        3.8114580000        1.7371170000        0.3913340000
 H        1.8771750000        2.8155950000        0.2454060000
 H        0.9648700000        1.9743420000        1.5089730000
 C       -4.3117150000       -0.1372490000       -0.0035470000
 N       -5.4571310000       -0.0279750000       -0.0206800000
 H        4.0057220000       -2.4677190000       -0.4606540000
 H        1.5374070000       -2.5061850000       -0.4876230000
 H       -0.3877650000       -2.4786920000        0.4945070000
 H       -2.8529270000       -2.3708770000        0.4641760000
