33
 energy:      -726.6968307700
 C       -4.6864540000       -0.1626440000        0.0659990000
 C       -4.0986850000       -1.3974580000        0.3003680000
 C       -2.7176900000       -1.5144830000        0.2821780000
 C       -3.8723810000        0.9202000000       -0.1680300000
 N       -2.5351640000        0.7893110000       -0.1854140000
 C       -1.9276610000       -0.4065170000        0.0207170000
 C       -0.4651440000       -0.4795160000       -0.0453860000
 N        0.2638160000        0.6426370000        0.1399410000
 C       -1.6867150000        1.9549000000       -0.4688730000
 C       -0.4571220000        1.8994670000        0.3991890000
 H       -2.2532880000        2.8593790000       -0.2556920000
 H       -1.4288300000        1.9470270000       -1.5309570000
 H       -0.7095990000        1.9407110000        1.4616220000
 H        0.2006060000        2.7340290000        0.1653150000
 C        0.2174560000       -1.6702570000       -0.2818640000
 C        1.5894630000       -1.7050110000       -0.2964750000
 C        2.3272710000       -0.5308270000       -0.0720450000
 C        1.6043510000        0.6500290000        0.1366060000
 H       -5.7600810000       -0.0293720000        0.0750320000
 H       -2.2534050000       -2.4671810000        0.4939260000
 H       -0.3384930000       -2.5760230000       -0.4795370000
 H       -4.7113400000       -2.2667780000        0.5069090000
 O        3.6254110000       -0.6132750000       -0.0878730000
 C        4.4542510000        0.5608410000        0.1352670000
 C        5.8891860000        0.1288470000        0.0711640000
 H        4.1978380000        0.9702790000        1.1171490000
 H        4.2162910000        1.2914720000       -0.6438740000
 H        6.1118260000       -0.6083320000        0.8419050000
 H        6.5276940000        0.9976960000        0.2358740000
 H        6.1295890000       -0.2902130000       -0.9053890000
 H        2.1252830000       -2.6273270000       -0.4872420000
 H        2.0794010000        1.6060840000        0.2992670000
 H       -4.2581010000        1.9156960000       -0.3459100000
