30
 energy:     -1068.8271011000
 C       -4.5870990000        0.9647770000        0.6954310000
 C       -4.6448910000       -0.4010040000        0.9242040000
 C       -3.4475660000        1.5329220000        0.1489220000
 C       -2.3601460000        0.7414770000       -0.2102850000
 C       -2.4285820000       -0.6381930000        0.0056870000
 C       -3.5565330000       -1.1943000000        0.5910720000
 H       -5.4267170000        1.5981750000        0.9544320000
 H       -3.3972040000        2.6050130000       -0.0118690000
 H       -5.5272900000       -0.8495600000        1.3623680000
 H       -3.5831190000       -2.2630330000        0.7689050000
 N       -1.2315040000        1.3037740000       -0.7939370000
 C        0.0472280000        0.7849630000       -0.5703490000
 C        0.2349000000       -0.5900650000       -0.4027260000
 S       -1.1319720000       -1.6854980000       -0.5588040000
 C        1.1597790000        1.6087270000       -0.5260180000
 C        2.4399000000        1.0967880000       -0.3463930000
 C        2.6168110000       -0.2697990000       -0.1743300000
 C        1.4996600000       -1.1033670000       -0.1854470000
 H        1.0319570000        2.6801560000       -0.6418330000
 H        3.2769870000        1.7801450000       -0.3293390000
 H        1.6417240000       -2.1672110000       -0.0410600000
 H       -1.2603880000        2.3075980000       -0.8610050000
 O        3.8086420000       -0.8926890000       -0.0024250000
 C        4.9894120000       -0.1164580000        0.0757150000
 C        5.1956140000        0.5007370000        1.4421590000
 H        4.9960560000        0.6419300000       -0.7146040000
 H        5.7947020000       -0.8185240000       -0.1455590000
 H        6.1412950000        1.0465840000        1.4660100000
 H        4.3947030000        1.1950750000        1.6986780000
 H        5.2293120000       -0.2764930000        2.2068460000
