23
 energy:     -1212.2242428100
 C        5.5007680000        0.4850450000       -0.6995450000
 C        5.3845350000       -0.8952730000       -0.7371960000
 C        4.4325770000        1.2636090000       -0.2829520000
 C        3.2450750000        0.6721150000        0.1348200000
 C        3.1364850000       -0.7201600000        0.1122300000
 C        4.1947850000       -1.4913860000       -0.3448450000
 H        6.4217920000        0.9645900000       -1.0071430000
 H        4.5183550000        2.3452980000       -0.2728560000
 H        6.2110240000       -1.5083980000       -1.0728540000
 H        4.0860490000       -2.5691240000       -0.3744580000
 N        2.1822230000        1.4538260000        0.5811930000
 C        0.8577130000        1.0791230000        0.3914860000
 C        0.4967620000       -0.2712460000        0.3968750000
 S        1.6987870000       -1.5020070000        0.7593290000
 C       -0.1342990000        2.0367440000        0.2103110000
 C       -1.4621860000        1.6719350000        0.0548370000
 C       -1.8020720000        0.3293600000        0.0433450000
 C       -0.8247460000       -0.6431750000        0.1977780000
 H        0.1351490000        3.0877010000        0.1998180000
 H       -2.2195210000        2.4342850000       -0.0688270000
 H       -1.0837300000       -1.6940620000        0.1830170000
 H        2.3453130000        2.4453410000        0.5227970000
 I       -3.7928860000       -0.2405750000       -0.2111310000
