30
 energy:      -687.4111476960
 C        4.2235810000       -0.5829810000        0.0085120000
 C        3.4778940000       -1.7262330000       -0.2426600000
 C        2.0943080000       -1.6520940000       -0.2634900000
 C        3.5600440000        0.6018270000        0.2206290000
 N        2.2170010000        0.6562420000        0.2022490000
 C        1.4565030000       -0.4454530000       -0.0221840000
 C       -0.0025940000       -0.3160380000        0.0049190000
 N       -0.5646130000        0.9039960000       -0.2001090000
 C        1.5318670000        1.9298600000        0.4632040000
 C        0.3328600000        2.0461080000       -0.4410700000
 H        2.2252490000        2.7457930000        0.2683340000
 H        1.2445390000        1.9613690000        1.5172380000
 H        0.6195460000        2.0420090000       -1.4954820000
 H       -0.2085060000        2.9661500000       -0.2304720000
 C       -0.8527390000       -1.3902300000        0.2242390000
 C       -2.2248920000       -1.2395140000        0.2096250000
 C       -2.7729590000        0.0258940000       -0.0291120000
 C       -1.8807290000        1.0906860000       -0.2237810000
 H        5.3051940000       -0.5985100000        0.0284900000
 H        4.0738670000        1.5356340000        0.4089280000
 H       -2.2468740000        2.0943990000       -0.3968300000
 H        1.5097500000       -2.5323740000       -0.4906050000
 H       -0.4343760000       -2.3650170000        0.4340480000
 H        3.9706610000       -2.6720700000       -0.4332430000
 H       -2.8613390000       -2.0953800000        0.3914150000
 O       -4.0378170000        0.3387820000       -0.0786070000
 C       -5.0387610000       -0.6758350000        0.1143330000
 H       -5.9888360000       -0.1606760000        0.0181520000
 H       -4.9486640000       -1.1073480000        1.1121980000
 H       -4.9506830000       -1.4418650000       -0.6572830000
