33
 energy:      -726.6919249810
 C       -4.1314580000       -0.8995150000       -0.0147780000
 C       -3.3366400000       -1.8978910000       -0.5527250000
 C       -3.5256210000        0.2249890000        0.5007510000
 N       -2.1906440000        0.3673770000        0.4886410000
 C       -1.9574780000       -1.7337790000       -0.5698720000
 C       -1.3857090000       -0.5883720000       -0.0481580000
 C        0.0803670000       -0.4150240000       -0.0252660000
 N        0.6448270000        0.7262040000       -0.5056980000
 C        0.9157780000       -1.4158520000        0.4386070000
 C        2.2915370000       -1.2687260000        0.4350440000
 C        2.8455460000       -0.0821480000       -0.0512660000
 C        1.9630830000        0.9011900000       -0.5234520000
 C       -1.5778690000        1.5664160000        1.0924650000
 C       -1.0020980000        2.5079720000        0.0450290000
 H       -0.8067560000        1.2142700000        1.7793370000
 H       -2.3377980000        2.0654370000        1.6897300000
 C       -0.2312650000        1.7848580000       -1.0495870000
 H       -0.3627000000        3.2251120000        0.5635950000
 H       -1.7932130000        3.0842600000       -0.4390850000
 H        0.3897850000        2.4776440000       -1.6126420000
 H       -0.9027960000        1.3019590000       -1.7610090000
 H        0.4758360000       -2.3245410000        0.8292390000
 H        2.9198680000       -2.0657560000        0.8098110000
 H        2.3434010000        1.8287130000       -0.9309080000
 H       -3.7818660000       -2.7953300000       -0.9652210000
 H       -5.2099240000       -0.9815840000        0.0155250000
 H       -1.3178420000       -2.4882310000       -1.0086600000
 H       -4.0881660000        1.0342030000        0.9476890000
 O        4.1136640000        0.2232000000       -0.1253400000
 C        5.1029900000       -0.7203980000        0.3157710000
 H        6.0579530000       -0.2334440000        0.1474310000
 H        5.0427080000       -1.6344740000       -0.2767860000
 H        4.9759360000       -0.9312260000        1.3786860000
