26
 energy:      -954.3851747690
 C       -3.9682290000        0.7963640000        0.4776400000
 C       -3.9880250000       -0.5841720000        0.5971570000
 C       -2.8049650000        1.4465870000        0.0974130000
 C       -1.6534530000        0.7252720000       -0.2029950000
 C       -1.6811570000       -0.6682320000       -0.0978670000
 C       -2.8371530000       -1.3090210000        0.3230440000
 H       -4.8572290000        1.3764670000        0.6927180000
 H       -2.7858720000        2.5290640000        0.0228840000
 H       -4.8898800000       -1.0975350000        0.9052710000
 H       -2.8343350000       -2.3885690000        0.4178050000
 N       -0.4960200000        1.3757370000       -0.6179750000
 C        0.7738460000        0.8913830000       -0.3090950000
 C        1.0053410000       -0.4829300000       -0.2187360000
 S       -0.2858820000       -1.6162240000       -0.5979480000
 C        1.8377630000        1.7581790000       -0.0958260000
 C        3.1065320000        1.2703560000        0.1784980000
 C        3.3464670000       -0.0937380000        0.2821340000
 C        2.2689380000       -0.9566460000        0.0960600000
 H        1.6703640000        2.8290390000       -0.1511150000
 H        3.9206970000        1.9705080000        0.3283210000
 H        2.4164710000       -2.0280620000        0.1824460000
 H       -0.5647950000        2.3799250000       -0.6165260000
 C        4.7163810000       -0.6301510000        0.5697940000
 H        5.3730560000        0.1509880000        0.9544450000
 H        5.1811870000       -1.0365180000       -0.3330350000
 H        4.6828610000       -1.4353750000        1.3064440000
