32
 energy:      -800.6766283770
 C        4.8951610000       -0.2117490000       -0.0506550000
 C        4.2870660000       -1.4247370000       -0.3322130000
 C        2.9013420000       -1.5131120000       -0.3274350000
 C        4.1000740000        0.8821210000        0.2119590000
 N        2.7620720000        0.7797980000        0.2119960000
 C        2.1355810000       -0.3985960000       -0.0352680000
 C        0.6651730000       -0.4464270000        0.0207880000
 N       -0.0340080000        0.7051020000       -0.1548100000
 C        1.9345570000        1.9594630000        0.5107110000
 C        0.7188740000        1.9492510000       -0.3795330000
 H        2.5257530000        2.8544090000        0.3262520000
 H        1.6608380000        1.9339580000        1.5684440000
 H        0.9917920000        2.0062530000       -1.4362020000
 H        0.0739860000        2.7928850000       -0.1413330000
 C       -0.0290900000       -1.6218760000        0.2428380000
 C       -1.4161710000       -1.6182570000        0.2503610000
 C       -2.1023090000       -0.4305520000        0.0429120000
 C       -1.3747340000        0.7264250000       -0.1509720000
 H        5.9715420000       -0.0994300000       -0.0449690000
 H        4.5062470000        1.8626960000        0.4250440000
 H       -1.8532050000        1.6855240000       -0.3032660000
 H        2.4184310000       -2.4487310000       -0.5727570000
 H        0.5097330000       -2.5399480000        0.4318120000
 H        4.8836240000       -2.2994120000       -0.5626760000
 H       -1.9861230000       -2.5254850000        0.4224420000
 C       -3.6098000000       -0.4489270000        0.0523190000
 O       -4.2051660000       -1.4703840000        0.2261800000
 O       -4.1041470000        0.7527400000       -0.1482230000
 C       -5.5498490000        0.8458160000       -0.1618870000
 H       -5.9457450000        0.2216330000       -0.9604740000
 H       -5.7704480000        1.8932520000       -0.3373000000
 H       -5.9436170000        0.5161960000        0.7974810000
