27
 energy:     -1029.5456704200
 C       -4.3064900000        0.8579000000        0.5520780000
 C       -4.3468720000       -0.5206660000        0.6900120000
 C       -3.1448750000        1.4828440000        0.1277230000
 C       -2.0151520000        0.7380530000       -0.1991060000
 C       -2.0648960000       -0.6536190000       -0.0755120000
 C       -3.2180090000       -1.2689350000        0.3891050000
 H       -5.1780530000        1.4563220000        0.7875860000
 H       -3.1096040000        2.5638320000        0.0385950000
 H       -5.2472500000       -1.0140370000        1.0330540000
 H       -3.2308910000       -2.3471810000        0.4972570000
 N       -0.8614630000        1.3594880000       -0.6615010000
 C        0.4103870000        0.8543330000       -0.3775900000
 C        0.6193280000       -0.5255920000       -0.2831590000
 S       -0.7052120000       -1.6357660000       -0.6074560000
 C        1.4952680000        1.6971300000       -0.2033740000
 C        2.7723160000        1.2006050000        0.0353380000
 C        2.9666560000       -0.1696770000        0.1376020000
 C        1.8770800000       -1.0264980000       -0.0070270000
 H        1.3490560000        2.7706250000       -0.2650780000
 H        3.5934750000        1.8939660000        0.1493800000
 H        2.0350290000       -2.0939900000        0.0838780000
 H       -0.9107850000        2.3647310000       -0.6682020000
 O        4.1600140000       -0.7654670000        0.3783100000
 C        5.2823590000        0.0647470000        0.5352770000
 H        6.1280870000       -0.5954880000        0.7163990000
 H        5.1665450000        0.7413690000        1.3886490000
 H        5.4753110000        0.6556650000       -0.3664030000
