22
 energy:     -2449.8663576000
 C        0.0000000000        2.7951670000        1.2379200000
 C        0.0000000000        3.6036780000       -0.0000030000
 C        0.0000000000        1.4491410000        1.2263340000
 C        0.0000000000        0.6979660000        0.0000110000
 C        0.0000000000        1.4491290000       -1.2263190000
 C        0.0000000000        2.7951550000       -1.2379180000
 H        0.0000000000        0.9387060000        2.1772420000
 H        0.0000000000        0.9386830000       -2.1772220000
 C        0.0000000000       -0.6979660000        0.0000110000
 C        0.0000000000       -1.4491410000        1.2263340000
 C        0.0000000000       -2.7951670000        1.2379200000
 C        0.0000000000       -3.6036780000       -0.0000030000
 C        0.0000000000       -2.7951550000       -1.2379180000
 C        0.0000000000       -1.4491290000       -1.2263190000
 H        0.0000000000       -0.9386830000       -2.1772220000
 H        0.0000000000       -0.9387060000        2.1772420000
 O        0.0000000000        4.8114390000       -0.0000090000
 O        0.0000000000       -4.8114390000       -0.0000090000
Cl        0.0000000000        3.6661880000        2.7032860000
Cl        0.0000000000        3.6661620000       -2.7032920000
Cl        0.0000000000       -3.6661880000        2.7032860000
Cl        0.0000000000       -3.6661620000       -2.7032920000
