22
 energy:    -10905.0420483000
 C        2.7958530000        1.2363360000        0.0001320000
 C        3.6055360000        0.0000010000        0.0002840000
 C        2.7958590000       -1.2363380000        0.0001310000
 C        1.4504670000        1.2264200000        0.0001860000
 C        0.6979700000       -0.0000050000        0.0002620000
 C        1.4504720000       -1.2264280000        0.0001850000
 H        0.9363860000        2.1752610000        0.0001460000
 H        0.9363970000       -2.1752710000        0.0001450000
 O        4.8136430000        0.0000030000       -0.0001200000
 C       -0.6979700000       -0.0000050000        0.0003010000
 C       -1.4504670000        1.2264200000        0.0001740000
 C       -2.7958540000        1.2363360000        0.0002070000
 C       -3.6055360000        0.0000010000        0.0008300000
 C       -2.7958590000       -1.2363380000        0.0002070000
 C       -1.4504720000       -1.2264280000        0.0001740000
 H       -0.9363860000        2.1752610000       -0.0000140000
 H       -0.9363970000       -2.1752710000       -0.0000140000
 O       -4.8136430000        0.0000030000       -0.0003240000
Br        3.7458090000        2.8430510000       -0.0000330000
Br        3.7458210000       -2.8430490000       -0.0000340000
Br       -3.7458090000        2.8430510000       -0.0001830000
Br       -3.7458210000       -2.8430490000       -0.0001830000
