30
 energy:      -650.3434637360
 N        3.3976240000       -0.0180340000       -0.0000000000
 C        2.5601220000       -1.0439760000       -0.0000000000
 C        1.1754490000       -0.8550620000       -0.0000000000
 C        0.6613610000        0.4591800000       -0.0000000000
 C        2.9283870000        1.2561250000       -0.0000000000
 C        1.5895710000        1.5147040000        0.0000000000
 C        0.2976990000       -1.9754370000       -0.0000000000
 C       -1.0456110000       -1.8041660000       -0.0000000000
 C       -1.5991810000       -0.4950610000        0.0000000000
 C       -0.7692800000        0.6482470000        0.0000000000
 N       -2.9600180000       -0.3267870000        0.0000000000
 C       -3.5059190000        0.8894820000        0.0000000000
 C       -1.3665260000        1.9169600000        0.0000000000
 C       -2.7343300000        2.0377980000        0.0000000000
 C       -3.8541990000       -1.4962060000        0.0000000000
 H       -3.6821760000       -2.0928060000       -0.8946020000
 H       -4.8814800000       -1.1449830000        0.0000010000
 H       -3.6821750000       -2.0928070000        0.8946020000
 C        4.8545140000       -0.2307310000       -0.0000000000
 H        5.0625260000       -1.2967610000       -0.0000010000
 H        5.2791880000        0.2277760000        0.8919550000
 H        5.2791880000        0.2277770000       -0.8919560000
 H        2.9968130000       -2.0345980000       -0.0000010000
 H        3.6750550000        2.0386780000       -0.0000000000
 H        1.2844340000        2.5512290000        0.0000000000
 H        0.7135240000       -2.9760010000       -0.0000010000
 H       -1.6893350000       -2.6711980000       -0.0000000000
 H       -0.7613760000        2.8137120000        0.0000000000
 H       -3.2226170000        3.0027090000        0.0000000000
 H       -4.5871620000        0.9298800000        0.0000010000
