30
 energy:      -650.3466029410
 N       -0.2354590000        3.4898670000        0.0000000000
 C        0.8906660000        2.7922890000        0.0000000000
 C        0.8869330000        1.3930620000        0.0000000000
 C       -0.3566240000        0.7213310000        0.0000000000
 C       -1.4402750000        2.8652030000        0.0000000000
 C       -1.5226940000        1.5035630000        0.0000000000
 C        2.1202980000        0.6760040000        0.0000000000
 C        2.1202980000       -0.6760040000        0.0000000000
 C       -0.3566230000       -0.7213310000        0.0000000000
 C        0.8869330000       -1.3930620000        0.0000000000
 C        0.8906650000       -2.7922890000        0.0000000000
 N       -0.2354590000       -3.4898670000        0.0000000000
 C       -1.5226940000       -1.5035630000        0.0000000000
 C       -1.4402760000       -2.8652030000        0.0000000000
 H        1.8153240000       -3.3549760000        0.0000000000
 H       -2.5092190000       -1.0621980000        0.0000000000
 H       -2.3107560000       -3.5067710000        0.0000000000
 H        3.0533110000        1.2262330000        0.0000000000
 H        3.0533110000       -1.2262330000        0.0000000000
 H       -2.3107560000        3.5067710000        0.0000000000
 H       -2.5092190000        1.0621980000        0.0000000000
 H        1.8153240000        3.3549760000        0.0000000000
 C       -0.2092020000        4.9616220000        0.0000000000
 H        0.8215010000        5.3037680000        0.0000000000
 H       -0.7182800000        5.3246070000        0.8917410000
 H       -0.7182800000        5.3246070000       -0.8917410000
 C       -0.2092020000       -4.9616220000        0.0000000000
 H        0.8215000000       -5.3037680000        0.0000000000
 H       -0.7182800000       -5.3246070000       -0.8917410000
 H       -0.7182800000       -5.3246070000        0.8917410000
