24
 energy:      -571.7231183880
 C        0.0000000000        3.5041860000       -0.2701720000
 C        0.0000000000        2.8645440000       -1.5066450000
 C        0.0000000000        1.4839920000       -1.5622650000
 C        0.0000000000        0.7275710000       -0.3978420000
 C        0.0000000000        2.7452430000        0.8675100000
 N        0.0000000000        1.3885340000        0.8031530000
 C       -0.0000000000       -0.7275710000       -0.3978420000
 N       -0.0000000000       -1.3885340000        0.8031530000
 C        0.0000000000        0.6645130000        1.9927690000
 C       -0.0000000000       -0.6645130000        1.9927690000
 C       -0.0000000000       -1.4839920000       -1.5622650000
 C       -0.0000000000       -2.8645440000       -1.5066450000
 C       -0.0000000000       -2.7452430000        0.8675100000
 C       -0.0000000000       -3.5041860000       -0.2701720000
 H        0.0000000000        1.2355630000        2.9099120000
 H       -0.0000000000       -1.2355630000        2.9099120000
 H        0.0000000000        4.5834010000       -0.1867480000
 H        0.0000000000        3.1702450000        1.8624750000
 H        0.0000000000        3.4419820000       -2.4233520000
 H        0.0000000000        0.9946540000       -2.5244860000
 H       -0.0000000000       -3.1702450000        1.8624750000
 H       -0.0000000000       -4.5834010000       -0.1867480000
 H       -0.0000000000       -0.9946540000       -2.5244860000
 H       -0.0000000000       -3.4419820000       -2.4233520000
