26
 energy:      -572.9523800090
 C        0.0150700000        3.4998410000       -0.3248160000
 C       -0.2420730000        2.8593280000       -1.5260870000
 C       -0.2602150000        1.4714340000       -1.5715800000
 C        0.2305290000        2.7349130000        0.8005110000
 N        0.2086870000        1.3947220000        0.7394510000
 C       -0.0150700000        0.7364180000       -0.4261500000
 C        0.0150700000       -0.7364180000       -0.4261500000
 N       -0.2086870000       -1.3947220000        0.7394510000
 C        0.4561340000        0.5995180000        1.9526960000
 C       -0.4561340000       -0.5995180000        1.9526960000
 H        0.2554580000        1.2213660000        2.8231010000
 H        1.5090040000        0.3067360000        1.9688390000
 H       -1.5090040000       -0.3067360000        1.9688390000
 H       -0.2554580000       -1.2213660000        2.8231010000
 C        0.2602150000       -1.4714340000       -1.5715800000
 C        0.2420730000       -2.8593280000       -1.5260870000
 C       -0.0150700000       -3.4998410000       -0.3248160000
 C       -0.2305290000       -2.7349130000        0.8005110000
 H        0.0373030000        4.5789410000       -0.2454430000
 H        0.4218890000        3.1680090000        1.7740230000
 H       -0.0373030000       -4.5789410000       -0.2454430000
 H       -0.4218890000       -3.1680090000        1.7740230000
 H       -0.4359870000        3.4321700000       -2.4251190000
 H       -0.4871860000        0.9644210000       -2.4990010000
 H        0.4871860000       -0.9644210000       -2.4990010000
 H        0.4359870000       -3.4321700000       -2.4251190000
