29
 energy:      -612.2344534350
 C        3.4986400000       -0.5454520000        0.0837910000
 C        2.8123000000       -1.6348860000        0.5902890000
 C        2.7805810000        0.5086660000       -0.4412470000
 N        1.4395160000        0.4963380000       -0.4649130000
 C        1.4216550000       -1.6350390000        0.5624480000
 C        0.7405850000       -0.5570420000        0.0339660000
 C       -0.7405850000       -0.5570420000       -0.0339660000
 N       -1.4395160000        0.4963380000        0.4649130000
 C       -1.4216550000       -1.6350390000       -0.5624480000
 C       -2.8123000000       -1.6348860000       -0.5902890000
 C       -3.4986400000       -0.5454520000       -0.0837910000
 C       -2.7805810000        0.5086660000        0.4412480000
 C        0.7045860000        1.6323690000       -1.0572090000
 C       -0.0000000000        2.4706360000       -0.0000000000
 H       -0.0024370000        1.2134450000       -1.7750630000
 H        1.4150780000        2.2325900000       -1.6213910000
 C       -0.7045860000        1.6323690000        1.0572090000
 H       -0.7072410000        3.1223380000       -0.5171630000
 H        0.7072410000        3.1223390000        0.5171630000
 H       -1.4150780000        2.2325900000        1.6213910000
 H        0.0024370000        1.2134450000        1.7750630000
 H       -0.8618480000       -2.4678770000       -0.9678960000
 H       -3.3470740000       -2.4795640000       -1.0080670000
 H       -4.5799630000       -0.5012030000       -0.0836870000
 H       -3.2584780000        1.3822920000        0.8652730000
 H        3.3470740000       -2.4795640000        1.0080670000
 H        0.8618480000       -2.4678770000        0.9678960000
 H        4.5799630000       -0.5012030000        0.0836870000
 H        3.2584780000        1.3822920000       -0.8652730000
