32
 energy:      -651.5144032860
 C       -0.0220630000        3.4964530000       -0.7966710000
 C       -0.6843790000        2.7910250000       -1.7862600000
 C       -0.6761830000        1.4023680000       -1.7431800000
 C        0.6268180000        2.7968740000        0.1967540000
 N        0.6273900000        1.4532420000        0.2323000000
 C       -0.0220630000        0.7419070000       -0.7207860000
 H        0.0080670000        4.5782030000       -0.7883240000
 H        1.1753210000        3.2925040000        0.9871970000
 H       -1.2002870000        3.3086480000       -2.5861230000
 H       -1.1867670000        0.8226620000       -2.5013590000
 C        0.0220630000       -0.7419070000       -0.7207860000
 N       -0.6273900000       -1.4532420000        0.2323000000
 C        1.3477910000        0.7994420000        1.3548040000
 C        0.4611080000        0.6060720000        2.5790150000
 H        2.1838840000        1.4547400000        1.5926410000
 H        1.7712070000       -0.1346220000        0.9848800000
 C       -1.3477910000       -0.7994420000        1.3548040000
 C       -0.4611080000       -0.6060720000        2.5790150000
 H       -2.1838840000       -1.4547400000        1.5926410000
 H       -1.7712070000        0.1346220000        0.9848800000
 H       -0.1154540000        1.5213720000        2.7423640000
 H        1.1267900000        0.5207740000        3.4405690000
 H        0.1154540000       -1.5213720000        2.7423640000
 H       -1.1267900000       -0.5207740000        3.4405690000
 C        0.6761830000       -1.4023680000       -1.7431800000
 C        0.6843790000       -2.7910250000       -1.7862600000
 C        0.0220630000       -3.4964530000       -0.7966710000
 H        1.1867670000       -0.8226620000       -2.5013590000
 H        1.2002870000       -3.3086480000       -2.5861230000
 C       -0.6268180000       -2.7968740000        0.1967540000
 H       -1.1753210000       -3.2925040000        0.9871970000
 H       -0.0080670000       -4.5782030000       -0.7883240000
