24
 energy:      -571.7608677580
 C        0.0000000000        3.5114160000       -0.3001940000
 C        0.0000000000        2.8119150000        0.8819620000
 C        0.0000000000        1.4006820000        0.8947980000
 C        0.0000000000        2.7986850000       -1.4886350000
 N        0.0000000000        1.4664470000       -1.4754220000
 C        0.0000000000        0.7144180000       -0.3359450000
 C        0.0000000000        0.6767340000        2.1187420000
 C       -0.0000000000       -0.6767340000        2.1187420000
 C       -0.0000000000       -1.4006820000        0.8947980000
 C       -0.0000000000       -0.7144180000       -0.3359450000
 H        0.0000000000        4.5929160000       -0.3270260000
 H        0.0000000000        3.2716610000       -2.4628950000
 H        0.0000000000        3.3414660000        1.8283770000
 H        0.0000000000        1.2312340000        3.0491130000
 H       -0.0000000000       -1.2312340000        3.0491130000
 C       -0.0000000000       -2.8119150000        0.8819620000
 C       -0.0000000000       -3.5114160000       -0.3001940000
 N       -0.0000000000       -1.4664470000       -1.4754220000
 C       -0.0000000000       -2.7986850000       -1.4886350000
 H       -0.0000000000       -3.2716610000       -2.4628950000
 H       -0.0000000000       -4.5929160000       -0.3270260000
 H       -0.0000000000       -3.3414660000        1.8283770000
 H        0.0000000000        1.0243660000       -2.3839890000
 H       -0.0000000000       -1.0243660000       -2.3839890000
