28
 energy:      -649.1303957900
 C        0.0160960000        3.4765100000        0.0397210000
 C       -0.0358470000        2.8143460000        1.2420670000
 C       -0.0253790000        1.4059490000        1.2791160000
 C        0.1183610000        2.7399270000       -1.1325680000
 N        0.1217160000        1.4088150000       -1.1120540000
 C        0.0160960000        0.7118870000        0.0570490000
 C       -0.0284920000        0.6769720000        2.5019390000
 C        0.0284920000       -0.6769720000        2.5019390000
 C        0.0253790000       -1.4059490000        1.2791160000
 C       -0.0160960000       -0.7118870000        0.0570490000
 C        0.0358470000       -2.8143460000        1.2420670000
 C       -0.0160960000       -3.4765100000        0.0397210000
 C       -0.1183610000       -2.7399270000       -1.1325680000
 N       -0.1217160000       -1.4088150000       -1.1120540000
 C        0.3911740000        0.6441630000       -2.3395780000
 C       -0.3911740000       -0.6441630000       -2.3395780000
 H        1.4671610000        0.4581640000       -2.3871430000
 H        0.1055200000        1.2471830000       -3.1998040000
 H       -0.1055200000       -1.2471830000       -3.1998040000
 H       -1.4671610000       -0.4581640000       -2.3871430000
 H       -0.0790640000        3.3688660000        2.1727810000
 H        0.0049080000        4.5569000000       -0.0173330000
 H        0.2149640000        3.2083490000       -2.1042480000
 H        0.0790640000       -3.3688660000        2.1727810000
 H       -0.0049080000       -4.5569000000       -0.0173330000
 H       -0.2149640000       -3.2083490000       -2.1042480000
 H       -0.0568430000        1.2286590000        3.4336530000
 H        0.0568430000       -1.2286590000        3.4336530000
