31
 energy:      -688.3908432360
 C        3.5482470000       -0.3142140000       -0.0730220000
 C        2.8197450000       -1.4420710000        0.1787090000
 C        2.8516390000        0.8486690000       -0.3471800000
 C        1.4121230000       -1.4039730000        0.1724720000
 N        1.5200630000        0.9170080000       -0.3207490000
 C        0.7319550000       -0.1729040000       -0.0215380000
 C        0.7128770000       -2.6312260000        0.2976310000
 C       -0.6227000000       -2.6579070000        0.1311190000
 C       -1.3527260000       -1.4504350000       -0.0275440000
 C       -0.7198270000       -0.1761190000        0.0175450000
 C       -2.7414900000       -1.5523760000       -0.2249350000
 C       -3.5056670000       -0.4268640000       -0.3533730000
 C       -2.8797590000        0.7855920000       -0.1474610000
 N       -1.5657300000        0.9219810000        0.0667740000
 H        4.6296990000       -0.3083910000       -0.0917560000
 H        3.3651620000        1.7652800000       -0.6037560000
 H        3.3111850000       -2.3904190000        0.3626920000
 H        1.2798480000       -3.5389510000        0.4611020000
 H       -1.1705280000       -3.5919290000        0.1316330000
 C       -1.2558040000        2.3038580000        0.5706890000
 C        0.1866410000        2.7123110000        0.6196710000
 H       -1.7140870000        2.3718040000        1.5582510000
 H       -1.7957590000        2.9709080000       -0.1005610000
 C        0.9312910000        2.2333250000       -0.6035740000
 H        0.6870330000        2.3624080000        1.5244820000
 H        0.2045940000        3.8026540000        0.6642870000
 H        1.7483720000        2.8987320000       -0.8671080000
 H        0.2874910000        2.1449670000       -1.4821390000
 H       -4.5709770000       -0.4573440000       -0.5378760000
 H       -3.4538030000        1.7019290000       -0.0971220000
 H       -3.1878310000       -2.5385700000       -0.2795480000
