40
 energy:      -881.2042930080
 C       -5.6919750000        0.1594450000       -0.0946460000
 C       -4.8374400000        0.8874010000        0.6830650000
 C       -3.4454150000        0.6610130000        0.6150850000
 C       -5.1820430000       -0.8193110000       -0.9662450000
 C       -3.8343640000       -1.0701460000       -1.0626040000
 C       -2.9425130000       -0.3338720000       -0.2721190000
 C       -2.5415880000        1.3834680000        1.3989530000
 C       -1.1921110000        1.1317760000        1.3094850000
 C       -0.7298940000        0.1575440000        0.4334690000
 N       -1.5783180000       -0.5504620000       -0.3289950000
 C        0.7298920000       -0.1575650000        0.4334660000
 C        1.1921040000       -1.1318390000        1.3094380000
 C        2.5415800000       -1.3835350000        1.3989020000
 N        1.5783200000        0.5504770000       -0.3289600000
 C        2.9425150000        0.3338850000       -0.2720860000
 C        3.4454120000       -0.6610420000        0.6150740000
 C        4.8374360000       -0.8874330000        0.6830520000
 C        5.6919750000       -0.1594400000       -0.0946190000
 C        3.8343700000        1.0701960000       -1.0625310000
 C        5.1820480000        0.8193580000       -0.9661750000
 C        1.0849280000        1.5780420000       -1.2521810000
 H        1.5043260000        2.5458860000       -0.9808170000
 H        0.0037130000        1.6371540000       -1.1951150000
 H        1.3783800000        1.3248790000       -2.2700580000
 C       -1.0849210000       -1.5779830000       -1.2522630000
 H       -1.5043210000       -2.5458400000       -0.9809470000
 H       -0.0037070000       -1.6370980000       -1.1951920000
 H       -1.3783670000       -1.3247710000       -2.2701300000
 H       -2.9115060000        2.1393370000        2.0825330000
 H       -0.4792560000        1.6702980000        1.9192110000
 H        0.4792450000       -1.6703900000        1.9191340000
 H        2.9114940000       -2.1394360000        2.0824480000
 H       -5.8668230000       -1.3931420000       -1.5786970000
 H       -3.4907640000       -1.8328990000       -1.7449150000
 H       -6.7597400000        0.3296030000       -0.0448960000
 H       -5.2082400000        1.6454740000        1.3621570000
 H        3.4907740000        1.8329820000       -1.7448070000
 H        5.8668320000        1.3932180000       -1.5785950000
 H        5.2082330000       -1.6455380000        1.3621090000
 H        6.7597400000       -0.3295990000       -0.0448720000
