22
 energy:      -495.6080304010
 N        0.0000000000       -0.0000000000       -3.4668230000
 C       -0.4307430000        1.0954130000       -2.8285750000
 C       -0.4354300000        1.1199580000       -1.4525620000
 C        0.4307430000       -1.0954130000       -2.8285750000
 C        0.4354300000       -1.1199580000       -1.4525620000
 C        0.0000000000       -0.0000000000       -0.7413960000
 C       -0.0000000000       -0.0000000000        0.7413960000
 C        0.4354300000        1.1199580000        1.4525620000
 C       -0.4354300000       -1.1199580000        1.4525620000
 C       -0.4307430000       -1.0954130000        2.8285750000
 C        0.4307430000        1.0954130000        2.8285750000
 N       -0.0000000000       -0.0000000000        3.4668230000
 H       -0.7635220000       -1.9238900000        3.4401680000
 H       -0.8035490000       -2.0056290000        0.9516990000
 H        0.8035490000        2.0056290000        0.9516990000
 H        0.7635220000        1.9238900000        3.4401680000
 H        0.8035490000       -2.0056290000       -0.9516990000
 H        0.7635220000       -1.9238900000       -3.4401680000
 H       -0.7635220000        1.9238900000       -3.4401680000
 H       -0.8035490000        2.0056290000       -0.9516990000
 H        0.0000000000       -0.0000000000       -4.4826010000
 H       -0.0000000000       -0.0000000000        4.4826010000
