36
 energy:      -878.8150937990
 C        0.0000000000        5.6629880000       -0.6905820000
 C        0.0000000000        4.8935260000        0.4254760000
 N        0.0000000000        3.5213470000        0.3413900000
 C        0.0000000000        2.8979100000       -0.8929090000
 C        0.0000000000        5.0587640000       -1.9618390000
 C        0.0000000000        3.6969800000       -2.0503710000
 C        0.0000000000        2.7775460000        1.4837490000
 C        0.0000000000        1.4093540000        1.4650000000
 C        0.0000000000        0.7296010000        0.2060480000
 C        0.0000000000        1.4965070000       -0.9336760000
 C        0.0000000000        0.6713400000        2.7003850000
 C       -0.0000000000       -0.6713400000        2.7003850000
 C       -0.0000000000       -1.4093540000        1.4650000000
 C       -0.0000000000       -0.7296010000        0.2060480000
 C       -0.0000000000       -2.7775460000        1.4837490000
 C       -0.0000000000       -1.4965070000       -0.9336760000
 C       -0.0000000000       -2.8979100000       -0.8929090000
 N       -0.0000000000       -3.5213470000        0.3413900000
 C       -0.0000000000       -4.8935260000        0.4254760000
 C       -0.0000000000       -5.6629880000       -0.6905820000
 C       -0.0000000000       -3.6969800000       -2.0503710000
 C       -0.0000000000       -5.0587640000       -1.9618390000
 H        0.0000000000        6.7393720000       -0.5822440000
 H        0.0000000000        5.2987320000        1.4274020000
 H        0.0000000000        5.6698610000       -2.8551010000
 H        0.0000000000        3.1969210000       -3.0098590000
 H        0.0000000000        1.2200110000        3.6341520000
 H       -0.0000000000       -1.2200110000        3.6341520000
 H        0.0000000000        3.3393100000        2.4077390000
 H        0.0000000000        1.0524830000       -1.9195100000
 H       -0.0000000000       -1.0524830000       -1.9195100000
 H       -0.0000000000       -3.3393100000        2.4077390000
 H       -0.0000000000       -5.2987320000        1.4274020000
 H       -0.0000000000       -6.7393720000       -0.5822440000
 H       -0.0000000000       -3.1969210000       -3.0098590000
 H       -0.0000000000       -5.6698610000       -2.8551010000
