36
 energy:      -878.8116834870
 C        0.0000000000        5.6202380000       -0.8388630000
 C        0.0000000000        4.9434650000        0.3445600000
 C        0.0000000000        3.5358960000        0.3715410000
 N        0.0000000000        2.8483700000       -0.8290420000
 C        0.0000000000        4.8924090000       -2.0456130000
 C        0.0000000000        3.5384880000       -2.0199900000
 C        0.0000000000        2.7928580000        1.5543620000
 C        0.0000000000        1.4163880000        1.5541000000
 C        0.0000000000        0.7327040000        0.2959910000
 C        0.0000000000        1.4821840000       -0.8453650000
 C        0.0000000000        0.6726260000        2.7818780000
 C       -0.0000000000       -0.6726260000        2.7818780000
 C       -0.0000000000       -1.4163880000        1.5541000000
 C       -0.0000000000       -0.7327040000        0.2959910000
 C       -0.0000000000       -2.7928580000        1.5543620000
 C       -0.0000000000       -1.4821840000       -0.8453650000
 N       -0.0000000000       -2.8483700000       -0.8290420000
 C       -0.0000000000       -3.5358960000        0.3715410000
 C       -0.0000000000       -4.9434650000        0.3445600000
 C       -0.0000000000       -5.6202380000       -0.8388630000
 C       -0.0000000000       -3.5384880000       -2.0199900000
 C       -0.0000000000       -4.8924090000       -2.0456130000
 H        0.0000000000        6.7024610000       -0.8560500000
 H        0.0000000000        5.4643010000        1.2930290000
 H        0.0000000000        5.3965260000       -3.0027360000
 H        0.0000000000        2.9299780000       -2.9129220000
 H        0.0000000000        1.2227150000        3.7149080000
 H       -0.0000000000       -1.2227150000        3.7149080000
 H        0.0000000000        3.3383160000        2.4895060000
 H        0.0000000000        1.0573000000       -1.8380530000
 H       -0.0000000000       -1.0573000000       -1.8380530000
 H       -0.0000000000       -3.3383160000        2.4895060000
 H       -0.0000000000       -5.4643010000        1.2930290000
 H       -0.0000000000       -6.7024610000       -0.8560500000
 H       -0.0000000000       -2.9299780000       -2.9129220000
 H       -0.0000000000       -5.3965260000       -3.0027360000
