32
 energy:      -651.5259769730
 C       -3.8033840000       -0.1449200000       -0.2099570000
 C       -3.2433720000       -1.2763460000       -0.7773060000
 C       -2.9774740000        0.7608620000        0.4206350000
 N       -1.6519970000        0.5648880000        0.4908350000
 C       -1.8683550000       -1.4663160000       -0.7004160000
 C       -1.0744630000       -0.5330270000       -0.0633960000
 C        0.3871470000       -0.7488490000        0.0724670000
 N        1.2586750000        0.2260780000       -0.3190750000
 C        0.8569960000       -1.9428580000        0.5651010000
 C        2.2300110000       -2.1437500000        0.6724290000
 C        3.0878000000       -1.1385030000        0.2863410000
 C        2.5999340000        0.0644360000       -0.2174680000
 C       -0.7987450000        1.5490930000        1.1841150000
 C        0.0571680000        2.3383880000        0.2032670000
 H       -0.1865070000        0.9939340000        1.8965010000
 H       -1.4451980000        2.2077760000        1.7598580000
 C        0.6772450000        1.4636020000       -0.8764350000
 H        0.8249280000        2.8572370000        0.7810570000
 H       -0.5333880000        3.1085530000       -0.2973430000
 H        1.4472800000        2.0030460000       -1.4168620000
 H       -0.0662110000        1.1567550000       -1.6134420000
 H        0.1559030000       -2.7035910000        0.8816380000
 H        2.6158520000       -3.0781310000        1.0621330000
 H        4.1595620000       -1.2644610000        0.3638650000
 H       -3.8651590000       -2.0075920000       -1.2798450000
 H       -1.4049360000       -2.3347870000       -1.1498990000
 H       -4.8682740000        0.0442420000       -0.2445290000
 H       -3.3537120000        1.6585170000        0.8937690000
 C        3.5256820000        1.1446920000       -0.6499570000
 H        3.4832190000        1.2960370000       -1.7326460000
 H        4.5471610000        0.8690500000       -0.3984180000
 H        3.3055900000        2.0976240000       -0.1646870000
