29
 energy:      -612.2451919590
 C        3.0959240000        1.0155540000        0.0938360000
 C        2.2665250000        2.0924580000        0.3195370000
 C        0.8891980000        1.9085910000        0.3000760000
 C        2.5697420000       -0.2534250000       -0.1237400000
 N        1.2225180000       -0.4017160000       -0.1097420000
 C        0.3748530000        0.6532980000        0.0641180000
 C       -1.0789100000        0.4279880000       -0.0207960000
 N       -1.5668360000       -0.8085550000        0.2413070000
 C        0.6123080000       -1.7265570000       -0.3061000000
 C       -0.6021650000       -1.8636640000        0.5746530000
 H        1.3327410000       -2.4929400000       -0.0364200000
 H        0.3616150000       -1.8475900000       -1.3633380000
 H       -0.3436080000       -1.7782430000        1.6332010000
 H       -1.0722640000       -2.8313870000        0.4099050000
 C       -1.9661810000        1.4356300000       -0.3565600000
 C       -3.3301340000        1.1807220000       -0.3846130000
 C       -3.7959570000       -0.0898690000       -0.0842170000
 C       -2.8822520000       -1.0738220000        0.2190830000
 H        4.1714030000        1.1335670000        0.0900730000
 H       -4.8511210000       -0.3295230000       -0.0964110000
 H       -3.1705970000       -2.0918570000        0.4474360000
 C        3.4498550000       -1.4251160000       -0.3694960000
 H        4.4827620000       -1.0932660000       -0.4443960000
 H        3.1940890000       -1.9426510000       -1.2967230000
 H        3.3980310000       -2.1475310000        0.4511730000
 H        2.6808800000        3.0753850000        0.5090950000
 H        0.2250920000        2.7399110000        0.4888670000
 H       -1.5937190000        2.4157850000       -0.6189930000
 H       -4.0219140000        1.9715210000       -0.6491180000
