26
 energy:      -573.5365024120
 C        2.8601350000        0.7126950000        0.1626810000
 C        3.4454500000       -0.4601650000       -0.3001440000
 C        1.4767000000        0.7221090000        0.2749070000
 C        2.6340930000       -1.5405430000       -0.6083960000
 N        1.3136500000       -1.5343780000       -0.4929130000
 C        0.7407840000       -0.4134230000       -0.0595120000
 C       -0.7407810000       -0.4134240000        0.0595110000
 C       -1.4767000000        0.7221050000       -0.2749200000
 C       -2.8601320000        0.7126910000       -0.1626930000
 C       -3.4454480000       -0.4601690000        0.3001390000
 N       -1.3136450000       -1.5343740000        0.4929210000
 C       -2.6340910000       -1.5405410000        0.6084010000
 H        0.9703850000        1.6055260000        0.6465370000
 H        4.5203540000       -0.5357600000       -0.4186420000
 H        3.0751070000       -2.4641020000       -0.9735230000
 H       -0.9703880000        1.6055180000       -0.6465620000
 H       -3.0751020000       -2.4641000000        0.9735310000
 H       -4.5203530000       -0.5357680000        0.4186310000
 C        3.6861870000        1.8991540000        0.5500540000
 H        4.1326370000        1.7502980000        1.5369510000
 H        3.0853020000        2.8078330000        0.5921820000
 H        4.5042230000        2.0579350000       -0.1544620000
 C       -3.6861940000        1.8991510000       -0.5500460000
 H       -3.0851890000        2.8077220000       -0.5927770000
 H       -4.5038420000        2.0582940000        0.1548410000
 H       -4.1331850000        1.7500350000       -1.5366570000
