30
 energy:      -650.3379528680
 C        3.4738100000        0.6137270000       -0.0000000000
 N        2.7763250000       -0.5190170000        0.0000000000
 C        1.4040560000       -0.5053150000        0.0000000000
 C        0.7227880000        0.7277040000       -0.0000000000
 C        2.8517010000        1.8518970000       -0.0000000000
 C        1.4812450000        1.9100630000       -0.0000000000
 C        0.6783510000       -1.7229600000        0.0000000000
 C       -0.6783510000       -1.7229600000        0.0000000000
 C       -1.4040560000       -0.5053150000        0.0000000000
 C       -0.7227880000        0.7277040000       -0.0000000000
 N       -2.7763250000       -0.5190170000       -0.0000000000
 C       -1.4812450000        1.9100630000       -0.0000000000
 C       -3.4738100000        0.6137270000       -0.0000000000
 C       -2.8517010000        1.8518970000       -0.0000000000
 H        3.4589530000        2.7469120000       -0.0000010000
 H        1.0024600000        2.8796920000       -0.0000010000
 H        4.5514420000        0.5167620000        0.0000000000
 H        1.1968400000       -2.6706690000        0.0000010000
 H       -1.1968400000       -2.6706690000        0.0000010000
 H       -1.0024600000        2.8796920000       -0.0000000000
 H       -3.4589530000        2.7469120000       -0.0000000000
 H       -4.5514420000        0.5167620000       -0.0000000000
 C        3.5080840000       -1.7962250000        0.0000010000
 H        4.5727620000       -1.5836130000        0.0000010000
 H        3.2594100000       -2.3646600000       -0.8949740000
 H        3.2594100000       -2.3646600000        0.8949760000
 C       -3.5080840000       -1.7962250000        0.0000000000
 H       -3.2594090000       -2.3646600000       -0.8949750000
 H       -4.5727620000       -1.5836130000       -0.0000010000
 H       -3.2594100000       -2.3646600000        0.8949750000
