19
 energy:      -609.8969223570
 C        1.7162480000       -1.2357030000       -0.0000000000
 C        2.6881460000       -0.2354430000       -0.0000000000
 C        0.3823550000       -0.8833620000       -0.0000000000
 C       -0.0000000000        0.4703370000        0.0000000000
 C        0.9898990000        1.4704530000        0.0000000000
 C        2.3389420000        1.0972840000        0.0000000000
 H        3.0873800000        1.8795480000        0.0000000000
 H        3.7366850000       -0.5085410000       -0.0000000000
 H        1.9817450000       -2.2845420000       -0.0000000000
 C       -0.6544680000       -1.9466980000       -0.0000000000
 C       -2.0670060000       -1.5143190000       -0.0000000000
 C       -2.4131830000       -0.2258820000       -0.0000000000
 C       -1.4061800000        0.8461370000        0.0000000000
 O       -0.3761000000       -3.1278210000       -0.0000000000
 O       -1.7714430000        2.0235830000        0.0000000000
 O        0.6844070000        2.7606510000        0.0000000000
 H       -0.3016150000        2.8166120000        0.0000000000
 H       -2.8008660000       -2.3119690000       -0.0000000000
 H       -3.4467570000        0.1007570000        0.0000000000
