27
 energy:      -648.1268634550
 C        0.5051190000        1.7809180000        0.5015860000
 C       -2.5135120000       -2.1044360000        0.2440840000
 C       -1.1296810000       -1.9750660000        0.2614560000
 C        2.7513940000        0.9039800000        0.2116390000
 N        1.4269320000        0.6758780000        0.2200140000
 H        3.0642260000        1.9224350000        0.4028270000
 C       -3.2986890000       -0.9905280000        0.0039700000
 C        0.9132370000       -0.5602810000       -0.0048720000
 C       -0.5467670000       -0.7415230000        0.0399950000
 C        3.6445060000       -0.1145670000       -0.0316900000
 C       -2.6821450000        0.2288980000       -0.1915130000
 H       -4.3788690000       -1.0488210000       -0.0270460000
 C        1.7811400000       -1.6021670000       -0.2776260000
 C        3.1522100000       -1.3849110000       -0.2864620000
 N       -1.3485630000        0.3353690000       -0.1562460000
 H        4.7055060000        0.0987920000       -0.0330100000
 C       -0.7086480000        1.6902020000       -0.4007330000
 H       -3.2230480000        1.1470460000       -0.3785630000
 O       -1.6000150000        2.6968320000       -0.2261950000
 H       -0.4143020000        1.6894440000       -1.4547700000
 H       -1.6806800000        2.9853690000        0.6907660000
 H        1.0164050000        2.7222190000        0.3082460000
 H        0.2141240000        1.7430390000        1.5564320000
 H       -2.9675830000       -3.0724070000        0.4195630000
 H       -0.5097300000       -2.8363880000        0.4676240000
 H        3.8279060000       -2.2042540000       -0.5014170000
 H        1.3886050000       -2.5829840000       -0.5064770000
