29
 energy:      -612.2380604030
 C        3.6519520000       -0.0543110000        0.0032720000
 C        3.1892780000       -1.3191300000       -0.3233410000
 C        1.8229090000       -1.5634950000       -0.3455460000
 C        2.7345020000        0.9357300000        0.2770400000
 N        1.4171220000        0.6824220000        0.2491920000
 C        0.9330020000       -0.5505070000       -0.0363130000
 C       -0.5225780000       -0.7614410000        0.0117760000
 N       -1.3532210000        0.3019220000       -0.1605000000
 C        0.4524490000        1.7538160000        0.5336760000
 C       -0.7337370000        1.6428720000       -0.4013380000
 H        0.9512810000        2.7083670000        0.3806810000
 H        0.1449220000        1.6857200000        1.5809470000
 C       -1.0626900000       -2.0136790000        0.2358850000
 C       -2.4401030000       -2.1888080000        0.2537590000
 C       -3.2601860000       -1.0933220000        0.0549070000
 C       -2.6838640000        0.1442330000       -0.1442430000
 H        4.7085250000        0.1778500000        0.0323460000
 H        3.0232640000        1.9504770000        0.5190580000
 H       -4.3390410000       -1.1774810000        0.0622090000
 H       -3.2785260000        1.0326930000       -0.2911920000
 H        1.4523950000       -2.5400340000       -0.6243550000
 H       -0.4087110000       -2.8543530000        0.4208230000
 H        3.8845800000       -2.1133720000       -0.5675600000
 H       -2.8605050000       -3.1715830000        0.4302370000
 C       -1.6850260000        2.8046350000       -0.2171930000
 H       -0.3763060000        1.6213920000       -1.4363110000
 H       -2.1296600000        2.8238640000        0.7796270000
 H       -2.4718230000        2.8166120000       -0.9705650000
 H       -1.1231530000        3.7298790000       -0.3508380000
