27
 energy:      -611.0165517030
 C       -3.0105580000       -2.0727690000        0.0000000000
 C       -3.3883520000       -0.7320490000        0.0000000000
 C       -1.6803500000       -2.3859060000        0.0000000000
 C       -2.4180870000        0.2490250000        0.0000000000
 C       -1.0689980000       -0.0878250000        0.0000000000
 N       -0.7320750000       -1.4121120000        0.0000000000
 C       -0.0000000000        0.8939880000        0.0000000000
 N        1.3073730000        0.4705620000        0.0000000000
 C        0.6057450000       -1.7870440000        0.0000000000
 C        1.6150640000       -0.9085390000        0.0000000000
 C       -0.2570510000        2.2590710000        0.0000000000
 C        0.7728440000        3.1776360000        0.0000000000
 C        2.3225390000        1.3734800000        0.0000000000
 C        2.0856510000        2.7212910000        0.0000000000
 H       -3.7421060000       -2.8704900000        0.0000000000
 H       -1.3115110000       -3.4027380000        0.0000000000
 H       -4.4359990000       -0.4566380000        0.0000000000
 H       -2.7178530000        1.2857680000        0.0000000000
 H        0.7941240000       -2.8501590000        0.0000000000
 H       -1.2769000000        2.6119550000        0.0000000000
 H        0.5552300000        4.2388260000        0.0000000000
 H        3.3215010000        0.9684970000        0.0000000000
 H        2.9266190000        3.4026900000        0.0000000000
 C        3.0315450000       -1.3502830000        0.0000000000
 H        3.0721120000       -2.4376240000        0.0000000000
 H        3.5638690000       -0.9998390000        0.8885000000
 H        3.5638690000       -0.9998390000       -0.8885000000
