36
 energy:      -803.8242630380
 C        3.7887010000       -2.3024580000       -0.0139800000
 C        4.3534350000       -1.0745820000        0.2926500000
 C        3.5545300000        0.0596780000        0.3122820000
 C        2.4383930000       -2.3617740000       -0.2760040000
 N        1.6806230000       -1.2545750000       -0.2540840000
 C        2.2056990000       -0.0358960000        0.0175390000
 C        1.3188100000        1.1381980000       -0.0110340000
 N       -0.0154500000        0.9655920000        0.1747250000
 C        0.2407990000       -1.3444030000       -0.5417070000
 C       -0.5402430000       -0.4337600000        0.3822510000
 H       -0.0782520000       -2.3720370000       -0.3828850000
 H        0.0789550000       -1.0895240000       -1.5912300000
 C        1.8128850000        2.4140630000       -0.2097940000
 C        0.9565920000        3.5068380000       -0.1767930000
 C       -0.3911050000        3.3013190000        0.0546980000
 C       -0.8505670000        2.0103910000        0.2203520000
 H        4.3752960000       -3.2113630000       -0.0382110000
 H        1.9265330000       -3.2872540000       -0.5059200000
 H       -1.0952590000        4.1217740000        0.0962250000
 H       -1.8926810000        1.7708560000        0.3838340000
 H        3.9807480000        1.0163370000        0.5793740000
 H        2.8653150000        2.5581710000       -0.4098740000
 H        5.4087380000       -0.9966780000        0.5248610000
 H        1.3460200000        4.5053860000       -0.3341460000
 C       -2.0200550000       -0.5615040000        0.1798030000
 H       -0.3007660000       -0.6805180000        1.4210070000
 C       -2.8268560000       -0.8268460000        1.2834970000
 C       -2.5943150000       -0.4482960000       -1.0879430000
 C       -3.9620460000       -0.5999480000       -1.2421420000
 C       -4.1957690000       -0.9820260000        1.1228210000
 C       -4.7619650000       -0.8687920000       -0.1379600000
 H       -2.3885310000       -0.9210670000        2.2715260000
 H       -4.8179270000       -1.1937660000        1.9830760000
 H       -5.8304170000       -0.9916700000       -0.2638410000
 H       -1.9898190000       -0.2336640000       -1.9635910000
 H       -4.4056920000       -0.5133190000       -2.2259040000
