29
 energy:     -1068.6159084500
 C        3.9114580000       -1.8268880000       -0.4141100000
 C        4.4836450000       -0.5798120000       -0.6071980000
 C        2.5892220000       -1.9327150000       -0.0108420000
 C        1.8330480000       -0.7930580000        0.2409860000
 C        2.4178230000        0.4618340000        0.0630910000
 C        3.7268860000        0.5617940000       -0.3829080000
 H        4.4889750000       -2.7261710000       -0.5894910000
 H        2.1358600000       -2.9101590000        0.1181620000
 H        5.5121170000       -0.4909200000       -0.9331220000
 H        4.1581820000        1.5442720000       -0.5343230000
 N        0.5137610000       -0.8960980000        0.6779170000
 C       -0.4589610000        0.0270720000        0.3093590000
 C       -0.1190100000        1.3538080000        0.1462980000
 S        1.5138590000        1.9049930000        0.5028760000
 C       -1.8091510000       -0.3837890000        0.1111420000
 C       -2.7830610000        0.6001850000       -0.2251140000
 C       -2.3891690000        1.9433800000       -0.3969870000
 C       -1.0827930000        2.3040560000       -0.2322070000
 H       -0.7718370000        3.3323940000       -0.3730380000
 H       -3.1341760000        2.6820240000       -0.6671670000
 H        0.1903510000       -1.8421320000        0.7712180000
 C       -2.2366180000       -1.7246130000        0.2489550000
 C       -4.1277160000        0.2042160000       -0.3933520000
 C       -3.5488920000       -2.0745290000        0.0790550000
 C       -4.5091010000       -1.0999010000       -0.2431220000
 H       -4.8584610000        0.9638690000       -0.6477970000
 H       -5.5455430000       -1.3856690000       -0.3748090000
 H       -1.5313630000       -2.5111960000        0.4902750000
 H       -3.8478380000       -3.1097480000        0.1903790000
