35
 energy:     -1222.1286889700
 C        0.0221920000       -0.2850170000        3.5754150000
 C        1.4139680000       -0.4983630000        3.6552640000
 C       -0.5619180000        0.1101620000        2.3372080000
 C        0.2909260000        0.3291420000        1.2175320000
 C        1.6477030000        0.1248470000        1.3433730000
 C        2.2034410000       -0.3164050000        2.5560170000
 H        1.8465720000       -0.8134660000        4.5972130000
 H        3.2719310000       -0.4881620000        2.6079250000
 N       -0.2312940000        0.7568810000       -0.0000000000
 C        0.2909260000        0.3291420000       -1.2175320000
 C        1.6477030000        0.1248470000       -1.3433730000
 S        2.7177960000        0.5067220000        0.0000000000
 C       -0.5619180000        0.1101620000       -2.3372080000
 C        0.0221920000       -0.2850170000       -3.5754150000
 C        1.4139680000       -0.4983630000       -3.6552640000
 C        2.2034410000       -0.3164050000       -2.5560170000
 H        3.2719310000       -0.4881620000       -2.6079250000
 H        1.8465720000       -0.8134660000       -4.5972130000
 H       -1.2172540000        0.9341310000       -0.0000000000
 C       -0.8128660000       -0.4698610000        4.6987310000
 C       -1.9644780000        0.2822510000        2.2863500000
 C       -2.1645430000       -0.2822260000        4.6182720000
 C       -2.7450780000        0.0944770000        3.3947050000
 H       -2.4562790000        0.5616110000        1.3620190000
 H       -3.8174130000        0.2319200000        3.3266630000
 H       -0.3550670000       -0.7683000000        5.6352910000
 H       -2.7900260000       -0.4275690000        5.4905350000
 C       -1.9644780000        0.2822510000       -2.2863500000
 C       -2.7450780000        0.0944770000       -3.3947050000
 C       -2.1645430000       -0.2822260000       -4.6182720000
 C       -0.8128660000       -0.4698610000       -4.6987310000
 H       -2.7900260000       -0.4275690000       -5.4905350000
 H       -0.3550670000       -0.7683000000       -5.6352910000
 H       -2.4562790000        0.5616110000       -1.3620190000
 H       -3.8174130000        0.2319200000       -3.3266630000
