24
 energy:      -990.2462006020
 C       -3.6848140000        1.2215380000        0.1951400000
 C       -3.9968910000       -0.0835720000       -0.1587980000
 C       -2.3652600000        1.6123840000        0.3013960000
 C       -1.3068120000        0.7297510000        0.0515920000
 C       -1.6407730000       -0.5808960000       -0.3100050000
 C       -2.9665920000       -0.9750440000       -0.3965750000
 H       -4.4700070000        1.9408700000        0.3918940000
 H       -2.1306240000        2.6339060000        0.5842220000
 H       -5.0268430000       -0.4046830000       -0.2442330000
 H       -3.1621170000       -2.0037610000       -0.6732220000
 N       -0.0244650000        1.2575500000        0.1540500000
 C        1.2622120000        0.7712470000        0.0377220000
 C        1.6294650000       -0.5798190000        0.1464080000
 S        0.4662410000       -1.8035430000        0.5447500000
 C        2.2814480000        1.7114280000       -0.1657230000
 C        3.6052500000        1.3311480000       -0.2477560000
 C        3.9617650000       -0.0096370000       -0.1615060000
 C        2.9670910000       -0.9523790000        0.0121020000
 H        2.0170900000        2.7604180000       -0.2543690000
 H        4.3650000000        2.0888900000       -0.3968300000
 H        3.2083800000       -2.0075930000        0.0617840000
 H        4.9967170000       -0.3139560000       -0.2469910000
 H       -0.0436200000        2.2597650000        0.2413170000
 O       -0.6898890000       -1.5096120000       -0.6352380000
