27
 energy:     -1311.3352845000
 C        4.9513630000       -1.3129250000        0.0151720000
 C        5.2436130000        0.0477340000        0.0218230000
 C        3.6353140000       -1.7383190000        0.0024830000
 C        2.5992780000       -0.8099470000       -0.0033930000
 C        2.8922980000        0.5540710000        0.0032640000
 C        4.2181540000        0.9757970000        0.0157600000
 H        5.7554020000       -2.0399440000        0.0199340000
 H        6.2752890000        0.3803980000        0.0317730000
 H        3.3761060000       -2.7897550000       -0.0031780000
 H        4.4135550000        2.0409250000        0.0204940000
 C        1.1898890000       -1.3010400000       -0.0175480000
 C        0.1169320000       -0.2854080000       -0.0168150000
 C        0.4196040000        1.0880640000       -0.0112080000
 C        1.8074490000        1.5760560000       -0.0032970000
 O        0.9633220000       -2.4944900000       -0.0280760000
 O        2.0865820000        2.7621440000       -0.0009700000
 C       -1.2089180000       -0.7020420000       -0.0265390000
 C       -2.2396310000        0.2278520000       -0.0276540000
 C       -1.9369820000        1.5868060000       -0.0298290000
 C       -0.6216220000        2.0121520000       -0.0199480000
 H       -1.4402890000       -1.7592660000       -0.0465780000
 H       -0.3710410000        3.0658950000       -0.0232550000
 H       -2.7588970000        2.2918560000       -0.0536410000
 S       -3.9575980000       -0.3111980000        0.0120180000
 O       -4.6828350000        0.7923280000       -0.5909250000
 O       -4.1976640000       -0.4855640000        1.4338230000
 O       -3.9605300000       -1.5399250000       -0.7577850000
