24
 energy:      -688.2163337450
 C       -0.7253290000        3.3847620000        0.0000000000
 C       -2.0588940000        2.9961590000        0.0000000000
 C        0.2845650000        2.4386290000        0.0000000000
 C       -0.0000000000        1.0719160000        0.0000000000
 C       -1.3525970000        0.6921380000        0.0000000000
 C       -2.3638300000        1.6501850000        0.0000000000
 H       -0.4667150000        4.4369990000        0.0000000000
 H        1.3090260000        2.7836770000        0.0000000000
 H       -2.8472650000        3.7384240000        0.0000000000
 H       -3.3890100000        1.3012490000        0.0000000000
 C        1.0705070000        0.0555730000        0.0000000000
 C        0.7612630000       -1.3148710000        0.0000000000
 C       -0.6372500000       -1.7894110000        0.0000000000
 C       -1.7540400000       -0.7290860000        0.0000000000
 O       -2.9045640000       -1.0874660000        0.0000000000
 O       -0.9355130000       -2.9569640000        0.0000000000
 C        2.4206560000        0.4104730000        0.0000000000
 C        3.4177840000       -0.5491130000        0.0000000000
 C        3.0987170000       -1.9010240000        0.0000000000
 C        1.7703450000       -2.2751730000        0.0000000000
 H        2.7122170000        1.4514220000        0.0000000000
 H        4.4552150000       -0.2363400000        0.0000000000
 H        3.8808220000       -2.6498860000        0.0000000000
 H        1.4749530000       -3.3170390000        0.0000000000
