39
 energy:     -1050.0196696100
 C        2.7101140000       -0.9494560000       -0.1579040000
 C        3.1455720000        0.3310010000       -0.2300470000
 C        1.2520960000       -1.3585050000       -0.1467890000
 C        2.1740430000        1.4478560000       -0.1745090000
 C        0.3047360000       -0.2499470000       -0.0081660000
 C        0.7719010000        1.0843710000       -0.0503810000
 C       -1.0823190000       -0.2117170000        0.1014570000
 C       -0.3322980000        1.9041360000        0.0337440000
 N       -1.4265570000        1.1164170000        0.1223200000
 O        0.9534100000       -2.5203520000       -0.2749330000
 O        2.5369070000        2.6121120000       -0.2360980000
 C       -2.0655570000       -1.2962560000        0.2394370000
 O       -3.2825630000       -0.9032280000       -0.1887850000
 O       -1.8391830000       -2.3861730000        0.6829280000
 C       -4.3139370000       -1.8919330000       -0.0776920000
 C       -5.5874070000       -1.2962500000       -0.6155210000
 H       -4.4091060000       -2.1865830000        0.9696580000
 H       -4.0093960000       -2.7783190000       -0.6372900000
 H       -5.8868660000       -0.4172950000       -0.0422800000
 H       -6.3912280000       -2.0315040000       -0.5526290000
 H       -5.4734570000       -1.0054340000       -1.6607730000
 C       -2.6678410000        1.8734870000        0.2034550000
 C       -2.1642970000        3.2834940000        0.5416690000
 H       -3.3293060000        1.4585960000        0.9608620000
 H       -3.1863870000        1.8274940000       -0.7565700000
 C       -0.7109910000        3.3388750000        0.0341260000
 H       -2.1758500000        3.4207210000        1.6241860000
 H       -2.7968290000        4.0542800000        0.1035930000
 H       -0.0547150000        3.9432700000        0.6585340000
 H       -0.6449180000        3.7457240000       -0.9798700000
 C        4.5746090000        0.7134350000       -0.4442870000
 H        5.0634320000        0.0271110000       -1.1362210000
 H        5.1498010000        0.7236860000        0.4850650000
 H        4.6091170000        1.7228930000       -0.8512760000
 O        3.5070900000       -2.0281990000       -0.1716160000
 C        4.6237470000       -2.0823040000        0.6983000000
 H        5.5300740000       -1.7005840000        0.2261900000
 H        4.7641880000       -3.1338370000        0.9449270000
 H        4.4290330000       -1.5201400000        1.6143260000
