33
 energy:      -860.1580442790
 C        2.0075900000       -2.8354260000       -0.2180440000
 C        3.1455200000       -2.1355950000       -0.1761010000
 C        0.6520970000       -2.2291410000       -0.1227650000
 H        2.0086210000       -3.9161510000       -0.3103050000
 C        0.6376490000       -0.7758470000       -0.0069560000
 C        1.8611930000       -0.0387440000        0.0161620000
 C        3.1709500000       -0.6591350000       -0.0506560000
 H        4.1153050000       -2.6176560000       -0.2340150000
 O       -0.3312080000       -2.9481470000       -0.1315310000
 O        4.2239300000       -0.0451300000       -0.0180530000
 C       -0.4151560000        0.1330850000        0.0323390000
 C        1.5238460000        1.2908030000        0.0753820000
 N        0.1676670000        1.3741360000        0.0667930000
 C       -1.8670650000       -0.0453060000        0.0074820000
 C       -2.6633740000        0.7193990000       -0.8478360000
 C       -2.4828360000       -0.9835460000        0.8354710000
 C       -3.8584960000       -1.1370590000        0.8202310000
 C       -4.6421710000       -0.3634790000       -0.0241680000
 C       -4.0394630000        0.5621250000       -0.8629890000
 H       -2.1981030000        1.4170770000       -1.5341460000
 H       -4.6408990000        1.1557160000       -1.5410360000
 H       -5.7181640000       -0.4888020000       -0.0358550000
 H       -1.8740370000       -1.5991370000        1.4830190000
 H       -4.3210480000       -1.8698270000        1.4702610000
 C       -0.3080130000        2.7263400000        0.3200490000
 C        0.9306630000        3.5650640000       -0.0179910000
 H       -0.5979050000        2.8190560000        1.3709260000
 H       -1.1729610000        2.9732040000       -0.2908460000
 C        2.1331320000        2.6352080000        0.2316150000
 H        0.9719530000        4.4820740000        0.5679170000
 H        0.8986990000        3.8451040000       -1.0723530000
 H        2.5346340000        2.7504610000        1.2434040000
 H        2.9620690000        2.8036660000       -0.4551920000
