35
 energy:      -935.5840141960
 C        2.7869710000       -1.8917340000        0.0321120000
 C        3.5233370000       -0.7714610000        0.0813400000
 C        1.3048600000       -1.9516640000        0.0210120000
 C        0.6333140000       -0.6461410000       -0.0573940000
 C        2.8548800000        0.5631840000        0.1079680000
 C        1.4049580000        0.5409980000        0.0308850000
 C       -0.7047580000       -0.2755320000       -0.1311240000
 C        0.5218670000        1.6006270000        0.0088250000
 N       -0.7264220000        1.0972760000       -0.0859110000
 O        0.7436590000       -3.0225200000        0.1120700000
 O        3.5047390000        1.5913470000        0.1824810000
 C       -1.7562510000        2.1271300000       -0.1026200000
 C       -0.9404360000        3.3944150000       -0.3932610000
 H       -2.2568010000        2.1576910000        0.8674290000
 H       -2.5075810000        1.9147950000       -0.8599780000
 C        0.4934160000        3.0827230000        0.0755010000
 H       -1.3658600000        4.2697600000        0.0954100000
 H       -0.9375750000        3.5833070000       -1.4679590000
 H        0.6722770000        3.4166740000        1.1024570000
 H        1.2628650000        3.5427370000       -0.5429590000
 C       -1.9182590000       -1.0918930000       -0.2856860000
 O       -1.9601600000       -2.1858920000       -0.7722220000
 O       -3.0022330000       -0.4416260000        0.1841210000
 C       -4.2388540000       -1.1557820000        0.0621390000
 C       -5.3294770000       -0.2982830000        0.6460350000
 H       -4.1442900000       -2.1090020000        0.5856010000
 H       -4.4137490000       -1.3808140000       -0.9921380000
 H       -5.1375330000       -0.0815880000        1.6978560000
 H       -6.2844230000       -0.8214770000        0.5753560000
 H       -5.4209030000        0.6471140000        0.1087230000
 C        5.0108960000       -0.7669840000        0.1264420000
 H        5.4098210000       -1.7801510000        0.1068300000
 H        5.3638340000       -0.2570750000        1.0255730000
 H        5.4160520000       -0.2033170000       -0.7169990000
 H        3.2620040000       -2.8676790000        0.0315330000
