41
 energy:     -1089.0829596100
 C       -1.1817630000        3.0813120000       -0.2485260000
 C        0.1370090000        3.2905780000       -0.1300290000
 C       -1.8212670000        1.7519750000       -0.3243290000
 C       -0.9139500000        0.6155770000       -0.1213160000
 C        0.4848200000        0.8122030000       -0.0252200000
 C        1.0890010000        2.1399770000       -0.0247280000
 H       -1.8725630000        3.9133300000       -0.3399310000
 O       -3.0048370000        1.6612880000       -0.5853290000
 O        2.2838830000        2.3504290000        0.0667240000
 C        1.0874170000       -0.4394850000        0.0060050000
 C       -1.1323620000       -0.7492490000       -0.1268390000
 N        0.0894020000       -1.3699810000       -0.0619040000
 C       -2.3698080000       -1.5454710000       -0.2359500000
 O       -3.3738860000       -0.9915050000        0.4228710000
 O       -2.4380680000       -2.5874280000       -0.8442380000
 C       -4.6610730000       -1.5983880000        0.2471900000
 C       -5.6682100000       -0.7357920000        0.9580720000
 H       -4.8662080000       -1.6704980000       -0.8226270000
 H       -4.6290900000       -2.6143430000        0.6472140000
 H       -5.4525830000       -0.6806590000        2.0260220000
 H       -5.6608090000        0.2754110000        0.5509270000
 H       -6.6670380000       -1.1569190000        0.8316940000
 C        0.2778030000       -2.8043210000        0.0588020000
 H        0.1663590000       -3.2926950000       -0.9077240000
 H        1.2706540000       -2.9919060000        0.4575990000
 H       -0.4692800000       -3.2157160000        0.7334570000
 C        0.7486910000        4.6468220000       -0.1016960000
 H        1.3155240000        4.7906480000        0.8207980000
 H        1.4687240000        4.7571150000       -0.9154320000
 H       -0.0103750000        5.4234340000       -0.1835420000
 C        2.5052360000       -0.8115460000        0.0721850000
 C        3.3138650000       -0.3341770000        1.1016280000
 C        3.0683120000       -1.6374800000       -0.9011940000
 C        4.4082130000       -1.9850450000       -0.8410630000
 C        5.2016850000       -1.5139350000        0.1942130000
 C        4.6509050000       -0.6876180000        1.1634780000
 H        2.8898170000        0.3230470000        1.8490110000
 H        5.2675860000       -0.3105750000        1.9702020000
 H        4.8337700000       -2.6196790000       -1.6089280000
 H        6.2495090000       -1.7848580000        0.2421730000
 H        2.4563130000       -1.9931740000       -1.7219080000
