35
 energy:      -861.3670983310
 C       -3.2991100000       -1.0958830000        0.1117630000
 C       -2.3260670000       -2.0196610000        0.1341450000
 C       -3.0670730000        0.3589380000        0.0171400000
 C       -1.6678390000        0.7515140000       -0.0461790000
 C       -0.6140340000       -0.2028420000       -0.0404830000
 C       -0.8789110000       -1.6317890000        0.0449730000
 C       -1.1027100000        2.0054730000       -0.0837410000
 C        0.5807610000        0.4965080000       -0.0620350000
 N        0.2564600000        1.8352960000       -0.0930300000
 C       -1.7408780000        3.3411550000       -0.1208210000
 H       -2.8171170000        3.2158900000       -0.0259130000
 H       -1.5383300000        3.8599400000       -1.0632320000
 H       -1.3838270000        3.9829720000        0.6893600000
 C        1.1887020000        2.9319230000       -0.2156860000
 H        0.8130210000        3.6516780000       -0.9421030000
 H        2.1487520000        2.5544600000       -0.5570060000
 H        1.3312480000        3.4431490000        0.7389550000
 C        1.9684820000        0.0272430000       -0.0247640000
 C        2.4144710000       -0.9325850000       -0.9323830000
 C        2.8648420000        0.5178630000        0.9267930000
 C        4.1753320000        0.0695310000        0.9621390000
 C        3.7250730000       -1.3768320000       -0.8979670000
 C        4.6103590000       -0.8765280000        0.0462620000
 H        1.7222740000       -1.3356200000       -1.6590670000
 H        4.0557220000       -2.1225870000       -1.6106950000
 H        5.6344370000       -1.2289950000        0.0732120000
 H        2.5253830000        1.2377190000        1.6625480000
 H        4.8548140000        0.4535830000        1.7135410000
 C       -2.5975110000       -3.4797730000        0.2342080000
 H       -3.6666650000       -3.6792630000        0.2924650000
 H       -2.1022640000       -3.8998440000        1.1124900000
 H       -2.1770420000       -4.0060290000       -0.6255650000
 O       -4.0075360000        1.1380680000        0.0062510000
 O       -0.0243670000       -2.4997890000        0.0395000000
 H       -4.3437320000       -1.3858880000        0.1660150000
