32
 energy:      -822.0807039840
 C       -3.2106220000       -1.8485340000        0.1902250000
 C       -2.0908920000       -2.5764720000        0.2223330000
 C       -3.2089810000       -0.3718690000        0.0584070000
 H       -4.1917910000       -2.3052360000        0.2609560000
 C       -1.8868490000        0.2279110000       -0.0269780000
 C       -0.7270170000       -1.9963130000        0.1125920000
 H       -2.1162190000       -3.6564580000        0.3191130000
 C       -0.6905490000       -0.5445480000       -0.0084570000
 C       -1.5291100000        1.5558740000       -0.0999450000
 C        0.3746540000        0.3372000000       -0.0574090000
 N       -0.1614900000        1.6056070000       -0.1175810000
 O       -4.2603250000        0.2471720000        0.0377350000
 O        0.2447650000       -2.7306510000        0.1181790000
 C       -2.3725550000        2.7712580000       -0.1634040000
 H       -3.4146250000        2.4802640000       -0.0533880000
 H       -2.2614510000        3.2901080000       -1.1208420000
 H       -2.1159280000        3.4830000000        0.6260430000
 C        0.5820360000        2.8342890000       -0.2754810000
 H        0.0924600000        3.4652580000       -1.0163810000
 H        1.5886200000        2.6067100000       -0.6154270000
 H        0.6447760000        3.3859950000        0.6650020000
 C        1.8192720000        0.0956060000       -0.0213140000
 C        2.4044970000       -0.8126040000       -0.9026420000
 C        2.6330620000        0.7518640000        0.9043620000
 C        3.9977560000        0.5156420000        0.9392020000
 C        3.7687710000       -1.0446420000       -0.8686750000
 C        4.5701960000       -0.3805510000        0.0489980000
 H        1.7796870000       -1.3439000000       -1.6075410000
 H        4.2078050000       -1.7532360000       -1.5604140000
 H        5.6369810000       -0.5673420000        0.0758940000
 H        2.1894970000        1.4330250000        1.6212810000
 H        4.6130880000        1.0257330000        1.6705750000
