29
 energy:      -707.8661919570
 C        2.1019040000        0.9078220000        0.0039830000
 C        2.4217270000       -0.4067280000        0.0161890000
 C        0.6841060000        1.3869250000       -0.0204770000
 C       -0.3274060000        0.3502030000       -0.0302460000
 C        1.3845900000       -1.4866580000        0.0065510000
 C        0.0040050000       -1.0320470000       -0.0197350000
 C       -1.7015230000        0.4286490000       -0.0390670000
 C       -1.1693040000       -1.7532470000       -0.0272620000
 N       -2.1803920000       -0.8442620000       -0.0302580000
 H       -1.3391320000       -2.8169140000       -0.0193660000
 C        3.8422690000       -0.8647140000        0.0401170000
 C        3.1521910000        1.9683780000        0.0136920000
 H        3.7875560000        1.8831400000        0.8996230000
 H        2.6911210000        2.9537520000        0.0035920000
 H        3.8105930000        1.8763730000       -0.8546220000
 H        4.3893250000       -0.4914630000       -0.8300890000
 H        3.8866140000       -1.9517080000        0.0450850000
 H        4.3618770000       -0.4848550000        0.9242050000
 C       -2.8231920000        1.4007240000       -0.0937780000
 C       -4.0346490000        0.5177750000        0.2706480000
 H       -2.9144080000        1.8209290000       -1.1005100000
 H       -2.6847450000        2.2402490000        0.5865040000
 C       -3.6267470000       -0.9143430000       -0.1061840000
 H       -4.9509200000        0.8253170000       -0.2312820000
 H       -4.2109780000        0.5698900000        1.3461930000
 H       -3.9342450000       -1.1779260000       -1.1224690000
 H       -4.0203380000       -1.6666750000        0.5776000000
 O        0.4184340000        2.5775720000       -0.0310900000
 O        1.6993900000       -2.6634110000        0.0186850000
