39
 energy:      -938.7275705180
 C       -3.2615320000       -0.6864990000       -0.0603550000
 C       -2.4321340000       -1.7535810000       -0.0813120000
 C       -2.7411350000        0.7096130000       -0.0172150000
 C       -1.2989300000        0.8404820000       -0.0026920000
 C       -0.4110050000       -0.2715840000       -0.0012850000
 C       -0.9374270000       -1.6280040000       -0.0367620000
 O       -3.4939610000        1.6708500000       -0.0064810000
 O       -0.2429320000       -2.6305480000       -0.0241650000
 C       -0.5249130000        1.9736740000       -0.0018420000
 N        0.7754990000        1.5820680000       -0.0140500000
 C        0.8951660000        0.2154750000       -0.0130240000
 C       -2.9657450000       -3.1470480000       -0.1335140000
 H       -3.5920360000       -3.2920430000       -1.0181140000
 H       -3.5963900000       -3.3575450000        0.7350660000
 H       -2.1480860000       -3.8638410000       -0.1564040000
 C       -4.7457460000       -0.8405590000       -0.0849240000
 H       -5.0933980000       -1.4347030000        0.7647750000
 H       -5.0712400000       -1.3640190000       -0.9883680000
 H       -5.2239480000        0.1363150000       -0.0527860000
 C        2.2011500000       -0.4424250000       -0.0201240000
 C        2.4500210000       -1.5479490000        0.7944370000
 C        3.2323320000        0.0318700000       -0.8347040000
 C        4.4779370000       -0.5742660000       -0.8287070000
 C        4.7158170000       -1.6654310000       -0.0070100000
 C        3.6964030000       -2.1493650000        0.8009340000
 H        1.6552320000       -1.9392860000        1.4131040000
 H        5.6889630000       -2.1415950000       -0.0016530000
 H        3.8715310000       -3.0057550000        1.4409520000
 H        3.0508710000        0.8636280000       -1.5043000000
 H        5.2612290000       -0.1982160000       -1.4760320000
 C       -0.6228410000        3.4544110000        0.0294470000
 C        0.7946030000        3.8516290000        0.4843920000
 H       -1.4077960000        3.8057750000        0.6974700000
 H       -0.8547090000        3.8448160000       -0.9671500000
 C        1.7016760000        2.7018000000        0.0255530000
 H        0.8204650000        3.9185870000        1.5734720000
 H        1.1199570000        4.8107130000        0.0831960000
 H        2.5305550000        2.4994720000        0.7030860000
 H        2.1132650000        2.8873470000       -0.9705590000
