42
 energy:     -1176.6711500300
 C       -3.0105860000       -1.7178410000       -0.0757150000
 C       -3.6754820000       -0.5436480000        0.1457230000
 C       -1.5107780000       -1.8153380000       -0.3076500000
 C       -0.7849330000       -0.6084350000       -0.1639980000
 C       -1.4413180000        0.5618180000        0.0794110000
 C       -2.9300050000        0.6846690000        0.2143860000
 O       -1.0487640000       -2.9061890000       -0.6312400000
 O       -3.4266000000        1.7914970000        0.3780230000
 N       -3.6004470000       -2.9145890000       -0.1426170000
 C       -5.1588230000       -0.5036180000        0.3177610000
 H       -5.6824400000       -0.9060610000       -0.5565600000
 H       -5.4840550000        0.5259690000        0.4583160000
 H       -5.4828030000       -1.0805020000        1.1908200000
 C        0.6660710000       -0.3108250000       -0.4442170000
 C        0.7930580000        1.1536700000        0.0920230000
 N       -0.6059060000        1.6064680000        0.1712740000
 C       -0.8110880000        2.9677100000       -0.3051480000
 C        0.4431130000        3.2426880000       -1.1116230000
 H       -0.9062210000        3.6691060000        0.5255020000
 H       -1.7181360000        3.0198050000       -0.9033770000
 C        1.4219140000        2.1594670000       -0.8651170000
 N        1.6163350000        3.4868660000       -0.2865190000
 H        2.0925130000        1.8010010000       -1.6355110000
 H        0.3605000000        3.7247530000       -2.0781080000
 O        1.2814120000        1.1927530000        1.4034860000
 C        2.6673510000        1.4005300000        1.5956380000
 H        2.9111570000        2.4627150000        1.5381910000
 H        3.2757300000        0.8479840000        0.8763880000
 H        2.8946270000        1.0312470000        2.5951530000
 H        2.3239420000        3.9905790000       -0.8094720000
 H       -4.5931430000       -3.0253480000       -0.0683420000
 H       -3.0048330000       -3.6938680000       -0.3796660000
 C        1.6266360000       -1.3193400000        0.1394620000
 H        0.8156970000       -0.3070450000       -1.5323940000
 O        2.9034080000       -1.1156190000       -0.4827400000
 H        1.2773640000       -2.3272840000       -0.0817640000
 H        1.7170990000       -1.2100670000        1.2194030000
 C        3.8981930000       -1.8925600000       -0.0125490000
 O        3.7836760000       -2.6843520000        0.8868840000
 N        5.0577650000       -1.6208790000       -0.6718270000
 H        5.0155870000       -1.1360370000       -1.5489940000
 H        5.8081800000       -2.2704120000       -0.5273980000
