23
 energy:      -915.1031258130
 C       -0.9991190000       -0.3378980000        3.5485170000
 C        0.3717880000       -0.4995070000        3.6699690000
 C       -1.5544860000        0.0095340000        2.3271550000
 C       -0.7454630000        0.2347160000        1.2179510000
 C        0.6380040000        0.0872960000        1.3472610000
 C        1.1832310000       -0.3008260000        2.5621710000
 H       -1.6458750000       -0.4941250000        4.4031080000
 H       -2.6298810000        0.1168510000        2.2288670000
 H        0.8110860000       -0.7822080000        4.6180820000
 H        2.2564750000       -0.4295330000        2.6391550000
 N       -1.3012800000        0.6159050000        0.0000000000
 C       -0.7454630000        0.2347160000       -1.2179510000
 C        0.6380040000        0.0872960000       -1.3472610000
 S        1.6940650000        0.4933270000       -0.0000000000
 C       -1.5544860000        0.0095340000       -2.3271550000
 C       -0.9991190000       -0.3378980000       -3.5485170000
 C        0.3717880000       -0.4995070000       -3.6699690000
 C        1.1832310000       -0.3008260000       -2.5621710000
 H       -2.6298810000        0.1168510000       -2.2288670000
 H       -1.6458750000       -0.4941250000       -4.4031080000
 H        2.2564750000       -0.4295330000       -2.6391550000
 H        0.8110860000       -0.7822080000       -4.6180820000
 H       -2.3071490000        0.6536800000        0.0000000000
