%nproc=8
%mem=18000mb
#P PBE1PBE DEF2TZVPP OPT FREQ SCF(tight) INT(ultrafine)

 6-phenyl-3c_2c_gn

 2 1
 C        3.8097170000       -2.3082930000       -0.0108030000
 C        4.3776990000       -1.0722260000        0.2884980000
 C        3.5726480000        0.0666710000        0.3060110000
 C        2.4508970000       -2.3702580000       -0.2683490000
 N        1.6885160000       -1.2597470000       -0.2485290000
 C        2.2143260000       -0.0333350000        0.0182490000
 C        1.3214050000        1.1435950000       -0.0123780000
 N       -0.0186330000        0.9667980000        0.1705540000
 C        0.2480370000       -1.3517750000       -0.5371700000
 C       -0.5393660000       -0.4356830000        0.3802900000
 H       -0.0759490000       -2.3868870000       -0.3743860000
 H        0.0869790000       -1.1040200000       -1.5986380000
 C        1.8153650000        2.4293040000       -0.2056410000
 C        0.9508640000        3.5249580000       -0.1753320000
 C       -0.4042600000        3.3126070000        0.0492850000
 C       -0.8611130000        2.0125360000        0.2131170000
 H        4.4029630000       -3.2250780000       -0.0336480000
 H        1.9381760000       -3.3080720000       -0.4949170000
 H       -1.1181910000        4.1381290000        0.0883830000
 H       -1.9134100000        1.7680030000        0.3754290000
 H        4.0050250000        1.0329250000        0.5674340000
 H        2.8773560000        2.5815120000       -0.4007810000
 H        5.4438130000       -0.9908190000        0.5165660000
 H        1.3410900000        4.5343600000       -0.3296510000
 C       -2.0236060000       -0.5670720000        0.1808400000
 H       -0.2980050000       -0.6790650000        1.4289110000
 C       -2.8373850000       -0.8226570000        1.2922040000
 C       -2.6014280000       -0.4641040000       -1.0953770000
 C       -3.9762990000       -0.6158170000       -1.2494900000
 C       -4.2132210000       -0.9777490000        1.1306160000
 C       -4.7814900000       -0.8749270000       -0.1380030000
 H       -2.3981450000       -0.9099540000        2.2904870000
 H       -4.8418970000       -1.1828820000        1.9997850000
 H       -5.8595540000       -0.9986770000       -0.2644320000
 H       -1.9928580000       -0.2567790000       -1.9812490000
 H       -4.4233190000       -0.5366990000       -2.2428650000

