%nproc=8
%mem=18000mb
#P PBE1PBE DEF2TZVPP OPT FREQ SCF(tight) INT(ultrafine)

 i47di-1-co2et-25-met-3-phen_n_rd

-1 2
 C       -1.3560130000        2.9324590000       -0.2908680000
 C       -0.0087660000        3.2178520000       -0.1450670000
 C       -1.9378510000        1.6151850000       -0.3192920000
 C       -0.9561360000        0.5461460000       -0.0826670000
 C        0.4453420000        0.8178850000        0.0034190000
 C        0.9876550000        2.1777070000       -0.0025500000
 H       -2.0720480000        3.7500040000       -0.4326240000
 O       -3.1474970000        1.4208860000       -0.5687440000
 O        2.2071570000        2.4418070000        0.1179620000
 C        1.1126730000       -0.4210380000        0.0283380000
 C       -1.0977250000       -0.8503080000       -0.0554010000
 N        0.1616280000       -1.4106560000       -0.0166980000
 C       -2.2898140000       -1.6917840000       -0.0931290000
 O       -3.3183770000       -1.1165340000        0.5323150000
 O       -2.3640990000       -2.7954280000       -0.6052110000
 C       -4.6176720000       -1.5814080000        0.2261460000
 C       -5.5861120000       -0.4987340000        0.6388050000
 H       -4.6812290000       -1.7919350000       -0.8542030000
 H       -4.8070290000       -2.5380570000        0.7466500000
 H       -5.5618630000       -0.3470590000        1.7289540000
 H       -5.2820630000        0.4424510000        0.1577280000
 H       -6.6144820000       -0.7635510000        0.3466420000
 C        0.4010730000       -2.8247190000        0.1706760000
 H        0.3183070000       -3.3779480000       -0.7761950000
 H        1.4001060000       -2.9705860000        0.5974150000
 H       -0.3498610000       -3.2403170000        0.8542060000
 C        0.5076240000        4.6244710000       -0.1439400000
 H        1.0499730000        4.8448130000        0.7913070000
 H        1.2446060000        4.7750060000       -0.9508540000
 H       -0.3071860000        5.3546080000       -0.2635730000
 C        2.5498120000       -0.7239190000        0.0478900000
 C        3.4230890000       -0.0325190000        0.9065970000
 C        3.1001810000       -1.7007150000       -0.8024960000
 C        4.4604740000       -2.0018300000       -0.7736150000
 C        5.3084340000       -1.3243390000        0.1005090000
 C        4.7805460000       -0.3348170000        0.9322960000
 H        3.0228870000        0.7706520000        1.5236660000
 H        5.4386130000        0.2178370000        1.6085700000
 H        4.8604290000       -2.7620850000       -1.4506390000
 H        6.3770390000       -1.5555300000        0.1243970000
 H        2.4540540000       -2.2130180000       -1.5190500000

