%nproc=8
%mem=18000mb
#P PBE1PBE DEF2TZVPP OPT FREQ SCF(tight) INT(ultrafine) SYMMETRY=NONE

 3355-tchlorodiphenq_n_ox

 1 2
 C       -2.8071940000       -1.2442350000       -0.2034100000
 C       -3.6119110000        0.0000000000       -0.0000010000
 C       -1.4404600000       -1.2221990000       -0.1862420000
 C       -0.7231690000        0.0000000000        0.0000000000
 C       -1.4404600000        1.2221990000        0.1862420000
 C       -2.8071950000        1.2442350000        0.2034100000
 H       -0.9116080000       -2.1578290000       -0.3630470000
 H       -0.9116080000        2.1578290000        0.3630480000
 C        0.7231690000        0.0000000000        0.0000000000
 C        1.4404600000       -1.2221990000        0.1862420000
 C        2.8071950000       -1.2442350000        0.2034100000
 C        3.6119110000        0.0000000000        0.0000010000
 C        2.8071950000        1.2442350000       -0.2034090000
 C        1.4404600000        1.2221990000       -0.1862420000
 H        0.9116080000        2.1578290000       -0.3630480000
 H        0.9116080000       -2.1578290000        0.3630470000
 O       -4.8164120000       -0.0000000000       -0.0000000000
 O        4.8164120000       -0.0000000000       -0.0000010000
Cl       -3.6782710000       -2.6613480000       -0.4577100000
Cl       -3.6782710000        2.6613480000        0.4577100000
Cl        3.6782710000       -2.6613480000        0.4577100000
Cl        3.6782710000        2.6613480000       -0.4577100000

