%nproc=8
%mem=18000mb
#P PBE1PBE DEF2TZVPP OPT FREQ SCF(tight) INT(ultrafine)

 3y_2c_rd

 1 2
 C       -0.0000000000        5.6982860000       -0.6943160000
 C       -0.0000000000        4.9167240000        0.4188110000
 N       -0.0000000000        3.5430370000        0.3392740000
 C       -0.0000000000        2.8952200000       -0.8990680000
 C       -0.0000000000        5.0804840000       -1.9763100000
 C       -0.0000000000        3.7194990000       -2.0661140000
 C       -0.0000000000        2.7893360000        1.4951930000
 C       -0.0000000000        1.4190180000        1.4791510000
 C       -0.0000000000        0.7086310000        0.2235490000
 C       -0.0000000000        1.5093880000       -0.9429780000
 C       -0.0000000000        0.6756960000        2.7187020000
 C       -0.0000000000       -0.6756960000        2.7187020000
 C       -0.0000000000       -1.4190180000        1.4791510000
 C       -0.0000000000       -0.7086310000        0.2235490000
 C       -0.0000000000       -2.7893360000        1.4951930000
 C       -0.0000000000       -1.5093880000       -0.9429780000
 C       -0.0000000000       -2.8952200000       -0.8990680000
 N       -0.0000000000       -3.5430370000        0.3392740000
 C       -0.0000000000       -4.9167240000        0.4188110000
 C       -0.0000000000       -5.6982860000       -0.6943160000
 C       -0.0000000000       -3.7194990000       -2.0661140000
 C       -0.0000000000       -5.0804840000       -1.9763100000
 H       -0.0000000000        6.7829960000       -0.5851050000
 H       -0.0000000000        5.3238190000        1.4305640000
 H       -0.0000000000        5.6941490000       -2.8791560000
 H       -0.0000000000        3.2160590000       -3.0340230000
 H       -0.0000000000        1.2275210000        3.6615220000
 H       -0.0000000000       -1.2275210000        3.6615220000
 H       -0.0000000000        3.3574130000        2.4256940000
 H       -0.0000000000        1.0572270000       -1.9341270000
 H       -0.0000000000       -1.0572270000       -1.9341270000
 H       -0.0000000000       -3.3574130000        2.4256940000
 H       -0.0000000000       -5.3238190000        1.4305640000
 H       -0.0000000000       -6.7829960000       -0.5851050000
 H       -0.0000000000       -3.2160590000       -3.0340230000
 H       -0.0000000000       -5.6941490000       -2.8791560000

