%nproc=8
%mem=18000mb
#P PBE1PBE DEF2TZVPP OPT FREQ SCF(tight) INT(ultrafine)

 1-10-phenanthroline_n_rd

-1 2
 N        0.0000000000        1.3803660000       -1.5423960000
 C        0.0000000000        2.7160890000       -1.5612820000
 C        0.0000000000        0.7386970000       -0.3774570000
 C       -0.0000000000        3.4917660000       -0.3925410000
 C        0.0000000000        2.8557920000        0.8341150000
 C        0.0000000000        1.4265250000        0.8959140000
 C       -0.0000000000       -0.7386970000       -0.3774570000
 C       -0.0000000000       -1.4265250000        0.8959140000
 C        0.0000000000        0.7021930000        2.0996120000
 C       -0.0000000000       -0.7021930000        2.0996120000
 N       -0.0000000000       -1.3803660000       -1.5423960000
 C       -0.0000000000       -2.7160890000       -1.5612820000
 C        0.0000000000       -3.4917660000       -0.3925410000
 C       -0.0000000000       -2.8557920000        0.8341150000
 H       -0.0000000000        3.1974700000       -2.5484150000
 H       -0.0000000000        4.5853450000       -0.4584880000
 H        0.0000000000        3.4277500000        1.7679310000
 H        0.0000000000        1.2540680000        3.0455730000
 H       -0.0000000000       -1.2540680000        3.0455730000
 H        0.0000000000       -4.5853450000       -0.4584880000
 H       -0.0000000000       -3.4277500000        1.7679310000
 H        0.0000000000       -3.1974700000       -2.5484150000

