%nproc=8
%mem=18000mb
#P PBE1PBE DEF2TZVPP OPT FREQ SCF(tight) INT(ultrafine)

 1-10-phenanthroline_n_ox

 1 2
 N        0.0000330000        1.3702690000       -1.5415770000
 C        0.0000410000        2.7047050000       -1.5395670000
 C        0.0000120000        0.7380720000       -0.3829050000
 C        0.0000120000        3.4947550000       -0.3746840000
 C       -0.0000020000        2.8549580000        0.8451410000
 C        0.0000020000        1.4329220000        0.8727670000
 C       -0.0000120000       -0.7380720000       -0.3829050000
 C       -0.0000020000       -1.4329220000        0.8727670000
 C       -0.0000050000        0.7042980000        2.0718970000
 C        0.0000050000       -0.7042980000        2.0718970000
 N       -0.0000330000       -1.3702690000       -1.5415770000
 C       -0.0000410000       -2.7047050000       -1.5395670000
 C       -0.0000120000       -3.4947550000       -0.3746840000
 C        0.0000020000       -2.8549580000        0.8451410000
 H        0.0000830000        3.1840770000       -2.5250540000
 H        0.0000120000        4.5835940000       -0.4496330000
 H       -0.0000140000        3.4162960000        1.7832220000
 H       -0.0000130000        1.2380460000        3.0266130000
 H        0.0000130000       -1.2380460000        3.0266130000
 H       -0.0000120000       -4.5835940000       -0.4496330000
 H        0.0000140000       -3.4162960000        1.7832220000
 H       -0.0000830000       -3.1840770000       -2.5250540000

