%nproc=8
%mem=18000mb
#P PBE1PBE DEF2TZVPP OPT FREQ SCF(tight) INT(ultrafine)

 i47di-1-phenyl-23-ch23_n_gn

 0 1
 C        2.0003210000       -2.8512640000       -0.2278980000
 C        3.1488640000       -2.1516790000       -0.1953700000
 C        0.6415680000       -2.2416090000       -0.1098190000
 H        1.9957010000       -3.9408970000       -0.3236640000
 C        0.6351590000       -0.7799790000       -0.0007010000
 C        1.8664770000       -0.0476230000        0.0165100000
 C        3.1832480000       -0.6701670000       -0.0628100000
 H        4.1243400000       -2.6413420000       -0.2658440000
 O       -0.3445500000       -2.9577680000       -0.0896880000
 O        4.2349790000       -0.0533860000       -0.0369990000
 C       -0.4175750000        0.1409350000        0.0403280000
 C        1.5343510000        1.2892640000        0.0803350000
 N        0.1745480000        1.3822860000        0.0781780000
 C       -1.8747900000       -0.0356550000        0.0089700000
 C       -2.6752460000        0.7602810000       -0.8272500000
 C       -2.4966770000       -1.0078060000        0.8067160000
 C       -3.8794040000       -1.1607110000        0.7828970000
 C       -4.6659470000       -0.3540080000       -0.0389650000
 C       -4.0583960000        0.6041460000       -0.8489690000
 H       -2.2063350000        1.4851810000       -1.4968860000
 H       -4.6636730000        1.2260860000       -1.5130050000
 H       -5.7513290000       -0.4792230000       -0.0561810000
 H       -1.8852010000       -1.6524970000        1.4378840000
 H       -4.3471190000       -1.9219720000        1.4117890000
 C       -0.2864970000        2.7411850000        0.3301460000
 C        0.9600870000        3.5696380000       -0.0163350000
 H       -0.5756840000        2.8401620000        1.3907090000
 H       -1.1611370000        2.9993530000       -0.2791360000
 C        2.1561030000        2.6316790000        0.2393310000
 H        1.0083080000        4.5019600000        0.5625210000
 H        0.9282850000        3.8439420000       -1.0821260000
 H        2.5571430000        2.7420330000        1.2620440000
 H        3.0015550000        2.7906910000       -0.4445460000

