%nproc=8
%mem=18000mb
#P PBE1PBE DEF2TZVPP OPT FREQ SCF(tight) INT(ultrafine)

 i47di-1-phenyl-23-ch23_n_ox

 1 2
 C        2.0113300000       -2.8723820000       -0.1950260000
 C        3.1589840000       -2.1716770000       -0.1390820000
 C        0.6550740000       -2.2650080000       -0.1373870000
 H        2.0085290000       -3.9618880000       -0.2856080000
 C        0.6291490000       -0.7837960000        0.0079260000
 C        1.8254660000       -0.0806990000        0.0227360000
 C        3.1666330000       -0.6973760000       -0.0242320000
 H        4.1371040000       -2.6580410000       -0.1785700000
 O       -0.3397470000       -2.9536500000       -0.2066540000
 O        4.1753430000       -0.0275500000        0.0256170000
 C       -0.4529430000        0.1776190000        0.0060940000
 C        1.5030790000        1.2946800000        0.0530540000
 N        0.1609290000        1.4191040000       -0.0003370000
 C       -1.8728880000       -0.0135460000        0.0001790000
 C       -2.7404560000        0.9186060000       -0.6308770000
 C       -2.4420410000       -1.1484620000        0.6377460000
 C       -3.8154110000       -1.3208250000        0.6619170000
 C       -4.6514550000       -0.3954070000        0.0305640000
 C       -4.1069990000        0.7190990000       -0.6255160000
 H       -2.3311980000        1.7629660000       -1.1846480000
 H       -4.7625120000        1.4228630000       -1.1423370000
 H       -5.7341200000       -0.5430490000        0.0408010000
 H       -1.7974810000       -1.8755430000        1.1265090000
 H       -4.2422210000       -2.1856620000        1.1734220000
 C       -0.2689870000        2.8096000000        0.2252960000
 C        1.0317730000        3.5971720000       -0.0039440000
 H       -0.6572800000        2.8964760000        1.2529240000
 H       -1.0624010000        3.1076830000       -0.4673210000
 C        2.1757580000        2.5939020000        0.2270610000
 H        1.0942880000        4.4727980000        0.6543600000
 H        1.0637880000        3.9647220000       -1.0398960000
 H        2.5971750000        2.6363020000        1.2488680000
 H        3.0386580000        2.7072530000       -0.4469150000

