%nproc=8
%mem=18000mb
#P PBE1PBE DEF2TZVPP OPT FREQ SCF(tight) INT(ultrafine)

 i47di-1-phenyl-23-ch23_n_rd

-1 2
 C        2.0149460000       -2.8228310000       -0.1395270000
 C        3.1885380000       -2.0860030000       -0.1530090000
 C        0.6782810000       -2.2835690000       -0.0611930000
 H        2.0541250000       -3.9170280000       -0.1744460000
 C        0.6364130000       -0.8163400000       -0.0109370000
 C        1.8658830000       -0.0700570000       -0.0304820000
 C        3.2079040000       -0.6493030000       -0.0920850000
 H        4.1611420000       -2.5867820000       -0.2047440000
 O       -0.3334880000       -3.0253960000       -0.0141820000
 O        4.2376040000        0.0598740000       -0.0933520000
 C       -0.4306620000        0.1145600000        0.0176090000
 C        1.5229210000        1.2665860000        0.0094550000
 N        0.1639860000        1.3698800000        0.0153060000
 C       -1.8805490000       -0.0437090000       -0.0213380000
 C       -2.7123500000        0.9118100000       -0.6452060000
 C       -2.5118340000       -1.1666560000        0.5561720000
 C       -3.8962690000       -1.2879990000        0.5506760000
 C       -4.7075180000       -0.3079310000       -0.0288230000
 C       -4.0996860000        0.7881580000       -0.6389210000
 H       -2.2613340000        1.7460150000       -1.1859370000
 H       -4.7094860000        1.5490820000       -1.1358750000
 H       -5.7963970000       -0.4094660000       -0.0239550000
 H       -1.8784940000       -1.9657670000        0.9467520000
 H       -4.3523090000       -2.1724580000        1.0057100000
 C       -0.2587830000        2.7042260000        0.4018110000
 C        0.9702160000        3.5492810000        0.0384040000
 H       -0.4693490000        2.7329660000        1.4877460000
 H       -1.1700030000        3.0316070000       -0.1144560000
 C        2.1649540000        2.5943490000        0.2109990000
 H        1.0405360000        4.4614880000        0.6497710000
 H        0.8932470000        3.8609650000       -1.0158660000
 H        2.5991450000        2.6619100000        1.2251430000
 H        2.9939150000        2.7750580000       -0.4883320000

