%nproc=8
%mem=18000mb
#P PBE1PBE DEF2TZVPP OPT FREQ SCF(tight) INT(ultrafine)

 310-dimethyl-3c_2c_rd

 1 2
 C        3.5488390000       -0.2699350000       -0.0115420000
 C        2.8677850000       -1.5194030000       -0.1279370000
 C        1.4993070000       -1.5769120000       -0.1206390000
 C        2.7647680000        0.8443950000        0.1223770000
 N        1.3997960000        0.7898150000        0.1404770000
 C        0.7131680000       -0.4048860000        0.0053970000
 C       -0.7131660000       -0.4048770000       -0.0053200000
 N       -1.3997880000        0.7898250000       -0.1404140000
 C        0.6314010000        1.9918620000        0.4166480000
 C       -0.6313980000        1.9919060000       -0.4164660000
 H        1.2430830000        2.8709100000        0.1753040000
 H        0.3812360000        2.0328800000        1.4911040000
 H       -0.3812460000        2.0330510000       -1.4909190000
 H       -1.2430810000        2.8709230000       -0.1750090000
 C       -1.4993110000       -1.5769010000        0.1207040000
 C       -2.8677890000       -1.5193980000        0.1279250000
 C       -3.5488400000       -0.2699360000        0.0114530000
 C       -2.7647630000        0.8443950000       -0.1224160000
 H        3.1921940000        1.8435370000        0.2287620000
 H       -3.1921860000        1.8435350000       -0.2288320000
 H        1.0001310000       -2.5373580000       -0.2431840000
 H       -1.0001360000       -2.5373420000        0.2432950000
 H       -3.4463810000       -2.4393190000        0.2388930000
 H        3.4463730000       -2.4393240000       -0.2389110000
 C       -5.0412860000       -0.1911760000        0.0393650000
 H       -5.4789530000       -0.7932710000       -0.7724660000
 H       -5.4005640000        0.8407310000       -0.0704860000
 H       -5.4365280000       -0.5908550000        0.9866800000
 C        5.0412820000       -0.1911690000       -0.0395800000
 H        5.4005660000        0.8407370000        0.0702690000
 H        5.4364430000       -0.5908170000       -0.9869420000
 H        5.4790230000       -0.7932870000        0.7721940000

