%nproc=8
%mem=18000mb
#P PBE1PBE DEF2TZVPP OPT FREQ SCF(tight) INT(ultrafine)

 310-dimethyl-3c_2c_ox

 3 2
 C        3.5507520000       -0.3182710000       -0.0068030000
 C        2.8634080000       -1.5406400000       -0.1797800000
 C        1.4812020000       -1.5692690000       -0.1722030000
 C        2.7372360000        0.8475050000        0.1650600000
 N        1.4068530000        0.8033320000        0.1587620000
 C        0.7225180000       -0.3847640000       -0.0035760000
 C       -0.7225180000       -0.3847640000        0.0035760000
 N       -1.4068520000        0.8033330000       -0.1587620000
 C        0.6235910000        2.0318470000        0.4230500000
 C       -0.6235890000        2.0318480000       -0.4230500000
 H        1.2395990000        2.9075750000        0.1755890000
 H        0.3979120000        2.0649510000        1.5029810000
 H       -0.3979100000        2.0649520000       -1.5029800000
 H       -1.2395970000        2.9075760000       -0.1755880000
 C       -1.4812030000       -1.5692680000        0.1722030000
 C       -2.8634090000       -1.5406380000        0.1797810000
 C       -3.5507530000       -0.3182680000        0.0068050000
 C       -2.7372350000        0.8475070000       -0.1650590000
 H        3.1963180000        1.8301230000        0.3234570000
 H       -3.1963170000        1.8301260000       -0.3234550000
 H        0.9735300000       -2.5224750000       -0.3316950000
 H       -0.9735320000       -2.5224740000        0.3316950000
 H       -3.4256230000       -2.4700660000        0.3211490000
 H        3.4256210000       -2.4700680000       -0.3211450000
 C       -5.0112770000       -0.2074500000        0.0148880000
 H       -5.3654940000       -0.2084880000        1.0762670000
 H       -5.4948170000       -1.0968080000       -0.4263440000
 H       -5.3910590000        0.7180690000       -0.4406610000
 C        5.0112770000       -0.2074520000       -0.0148900000
 H        5.3910610000        0.7180210000        0.4407520000
 H        5.3654720000       -0.2083510000       -1.0762780000
 H        5.4948300000       -1.0968580000        0.4262260000

