%nproc=8
%mem=18000mb
#P PBE1PBE DEF2TZVPP OPT FREQ SCF(tight) INT(ultrafine)

 6-methyl-3c_2c_gn

 2 1
 C        3.6687040000       -0.0548980000        0.0037090000
 C        3.2049210000       -1.3278980000       -0.3195720000
 C        1.8313770000       -1.5732940000       -0.3418650000
 C        2.7451310000        0.9409120000        0.2744380000
 N        1.4225170000        0.6865070000        0.2464370000
 C        0.9358650000       -0.5525170000       -0.0377110000
 C       -0.5254920000       -0.7634410000        0.0116930000
 N       -1.3590090000        0.3059650000       -0.1560010000
 C        0.4568570000        1.7578550000        0.5331300000
 C       -0.7368370000        1.6490970000       -0.3971120000
 H        0.9579170000        2.7215720000        0.3802190000
 H        0.1526290000        1.6918720000        1.5916910000
 C       -1.0701440000       -2.0243020000        0.2282010000
 C       -2.4548000000       -2.1988380000        0.2488550000
 C       -3.2771840000       -1.0945380000        0.0584230000
 C       -2.6950900000        0.1492370000       -0.1368980000
 H        4.7351650000        0.1798620000        0.0332830000
 H        3.0402230000        1.9649600000        0.5159180000
 H       -4.3662900000       -1.1776480000        0.0681660000
 H       -3.2975680000        1.0454140000       -0.2812880000
 H        1.4603220000       -2.5609230000       -0.6182310000
 H       -0.4133260000       -2.8763980000        0.4067960000
 H        3.9069870000       -2.1306020000       -0.5611140000
 H       -2.8803420000       -3.1911210000        0.4209000000
 C       -1.6873630000        2.8161820000       -0.2220180000
 H       -0.3782630000        1.6235640000       -1.4417590000
 H       -2.1263180000        2.8548840000        0.7865670000
 H       -2.4870530000        2.8184100000       -0.9750680000
 H       -1.1243090000        3.7475080000       -0.3787660000

