%nproc=8
%mem=18000mb
#P PBE1PBE DEF2TZVPP OPT FREQ SCF(tight) INT(ultrafine)

 6-methyl-3c_2c_rd

 1 2
 C        3.6749840000       -0.0287940000       -0.0215740000
 C        3.2039430000       -1.3547300000       -0.2064180000
 C        1.8555440000       -1.6051770000       -0.2023820000
 C        2.7593050000        0.9652750000        0.1670370000
 N        1.4206070000        0.7134990000        0.1815320000
 C        0.9129900000       -0.5615900000       -0.0134050000
 C       -0.4985940000       -0.7646500000       -0.0067420000
 N       -1.3617240000        0.3235270000       -0.1051780000
 C        0.4797970000        1.7769800000        0.4784950000
 C       -0.7631200000        1.6406640000       -0.3881880000
 H        0.9665330000        2.7407360000        0.2817390000
 H        0.2000730000        1.7448540000        1.5465550000
 C       -1.0816140000       -2.0518210000        0.1081970000
 C       -2.4416470000       -2.2207330000        0.1510550000
 C       -3.2838880000       -1.0840260000        0.0810760000
 C       -2.7117190000        0.1497110000       -0.0478150000
 H        4.7384600000        0.2097350000       -0.0327470000
 H        3.0446650000        2.0075110000        0.3213850000
 H       -4.3694990000       -1.1694730000        0.1281130000
 H       -3.3154710000        1.0519150000       -0.1172200000
 H        1.4950410000       -2.6174370000       -0.3795510000
 H       -0.4277360000       -2.9176890000        0.2013400000
 H        3.9100800000       -2.1713880000       -0.3670100000
 H       -2.8675280000       -3.2201930000        0.2552220000
 C       -1.7008350000        2.8147720000       -0.1841490000
 H       -0.4367210000        1.6193970000       -1.4444990000
 H       -2.0972590000        2.8544160000        0.8417750000
 H       -2.5389490000        2.8082810000       -0.8936150000
 H       -1.1447450000        3.7448670000       -0.3670800000

