%nproc=8
%mem=18000mb
#P PBE1PBE DEF2TZVPP OPT FREQ SCF(tight) INT(ultrafine)

 6-methyl-3c_2c_ox

 3 2
 C        3.6768720000       -0.0463860000       -0.0074590000
 C        3.2332130000       -1.3422550000       -0.2512630000
 C        1.8587820000       -1.5873960000       -0.2486260000
 C        2.7232670000        0.9807480000        0.2213490000
 N        1.4121920000        0.7363860000        0.2020070000
 C        0.9281780000       -0.5354800000       -0.0219020000
 C       -0.4995440000       -0.7590010000       -0.0168570000
 N       -1.3644490000        0.3148880000       -0.1266310000
 C        0.4446390000        1.8221160000        0.4855360000
 C       -0.7797620000        1.6862310000       -0.3979010000
 H        0.9382430000        2.7819500000        0.2811030000
 H        0.1919950000        1.7884820000        1.5603360000
 C       -1.0411980000       -2.0677650000        0.1293710000
 C       -2.4189970000       -2.2746330000        0.1941780000
 C       -3.2534880000       -1.1667160000        0.0985360000
 C       -2.6805160000        0.1257730000       -0.0725940000
 H        4.7435620000        0.2101830000        0.0140760000
 H        3.0386150000        2.0108650000        0.4292860000
 H       -4.3463720000       -1.2546330000        0.1424130000
 H       -3.3179460000        1.0093980000       -0.1769940000
 H        1.5033030000       -2.5989160000       -0.4588350000
 H       -0.3738070000       -2.9264560000        0.2336360000
 H        3.9422120000       -2.1564810000       -0.4410900000
 H       -2.8266380000       -3.2840980000        0.3218880000
 C       -1.7568730000        2.8252500000       -0.1945760000
 H       -0.4730670000        1.6501160000       -1.4599490000
 H       -2.1572140000        2.8713380000        0.8307930000
 H       -2.5788680000        2.8057180000       -0.9253610000
 H       -1.2256490000        3.7707070000       -0.3856890000

