%nproc=8
%mem=18000mb
#P PBE1PBE DEF2TZVPP OPT(calcall) FREQ SCF(tight) INT(ultrafine)

 112266-hexamethyl-3p_2c_rd

 1 2
 N        3.5495040000       -0.0107340000       -0.0000690000
 C        2.8562530000       -1.2048950000       -0.0000010000
 C        1.4843020000       -1.1988560000        0.0000190000
 C        2.8596750000        1.1864490000       -0.0000230000
 C        1.4887520000        1.1934750000        0.0000050000
 C        0.7154250000       -0.0011790000        0.0000010000
 H        1.0080460000        2.1705400000        0.0000340000
 H        0.9960760000       -2.1720430000        0.0000650000
 C       -0.7154250000        0.0011790000        0.0000000000
 C       -1.4887520000       -1.1934760000       -0.0000150000
 C       -2.8596750000       -1.1864500000       -0.0000150000
 C       -1.4843020000        1.1988560000        0.0000100000
 C       -2.8562530000        1.2048940000        0.0000120000
 N       -3.5495040000        0.0107340000        0.0000010000
 H       -0.9960770000        2.1720430000        0.0000190000
 H       -1.0080450000       -2.1705400000       -0.0000320000
 C       -5.0054640000       -0.0210100000        0.0000010000
 H       -5.4068590000        0.9939900000        0.0000280000
 H       -5.3833830000       -0.5386770000        0.8930090000
 H       -5.3833860000       -0.5386320000       -0.8930310000
 C        5.0054650000        0.0210160000        0.0000010000
 H        5.4068650000       -0.9939800000       -0.0007800000
 H        5.3833760000        0.5380000000        0.8934170000
 H        5.3833880000        0.5393260000       -0.8926230000
 C       -3.6141370000        2.4941730000        0.0000250000
 H       -2.9088040000        3.3334170000        0.0000300000
 H       -4.2544090000        2.5985690000        0.8903290000
 H       -4.2544150000        2.5985840000       -0.8902730000
 C        3.6440490000        2.4580420000       -0.0000060000
 H        4.2913450000        2.5430610000       -0.8869480000
 H        4.2917330000        2.5428080000        0.8866730000
 H        2.9618890000        3.3161080000        0.0002560000
 C       -3.6440460000       -2.4580450000       -0.0000340000
 H       -2.9618840000       -3.3161090000       -0.0000500000
 H       -4.2915390000       -2.5429240000       -0.8868440000
 H       -4.2915330000       -2.5429540000        0.8867770000
 C        3.6141340000       -2.4941760000        0.0000560000
 H        4.2543150000       -2.5986760000       -0.8903030000
 H        2.9087980000       -3.3334180000        0.0002100000
 H        4.2545020000       -2.5984870000        0.8902990000

