%nproc=8
%mem=18000mb
#P PBE1PBE DEF2TZVPP OPT FREQ SCF(tight) INT(ultrafine)

 112266-hexamethyl-3p_2c_ox

 3 2
 N       -3.5689390000        0.0098210000        0.0225090000
 C       -2.9006920000        1.1514770000       -0.3135050000
 C       -1.4802820000        1.1481160000       -0.3046590000
 C       -2.8999750000       -1.1450540000        0.3108120000
 C       -1.4806270000       -1.1494390000        0.2903090000
 C       -0.7456390000        0.0001090000       -0.0040610000
 H       -0.9958860000       -2.0953070000        0.5398380000
 H       -0.9932220000        2.0878570000       -0.5722160000
 C        0.7456340000       -0.0001000000       -0.0040610000
 C        1.4806320000        1.1494160000        0.2904060000
 C        2.8999900000        1.1450470000        0.3109280000
 C        1.4802730000       -1.1480700000       -0.3048210000
 C        2.9006770000       -1.1514060000       -0.3136490000
 N        3.5689360000       -0.0098320000        0.0226130000
 H        0.9932200000       -2.0877710000       -0.5725370000
 H        0.9958860000        2.0952680000        0.5399830000
 C        5.0463920000        0.0020260000        0.0471550000
 H        5.4291710000       -1.0163720000        0.1435260000
 H        5.3935120000        0.5818630000        0.9094090000
 H        5.4286430000        0.4523200000       -0.8825850000
 C       -5.0463880000       -0.0023580000        0.0470660000
 H       -5.4295270000        1.0161420000        0.1406240000
 H       -5.3933080000       -0.5800230000        0.9108970000
 H       -5.4284790000       -0.4552680000       -0.8814550000
 C        3.6314210000       -2.3771120000       -0.6884550000
 H        2.9418290000       -3.1605060000       -1.0235830000
 H        4.2071880000       -2.7801590000        0.1692580000
 H        4.3685790000       -2.1881440000       -1.4899970000
 C       -3.6426050000       -2.3759270000        0.6361980000
 H       -4.1969070000       -2.2653940000        1.5907460000
 H       -2.9675570000       -3.2331280000        0.7400790000
 H       -4.4070750000       -2.6115230000       -0.1264020000
 C        3.6425380000        2.3760000000        0.6362490000
 H        2.9674170000        3.2331770000        0.7398740000
 H        4.4071090000        2.6115200000       -0.1262690000
 H        4.1966250000        2.2656760000        1.5909480000
 C       -3.6313420000        2.3773290000       -0.6880610000
 H       -4.2076650000        2.7798790000        0.1694940000
 H       -4.3679600000        2.1887080000       -1.4901940000
 H       -2.9416200000        3.1609380000       -1.0224130000

