%nproc=8
%mem=18000mb
#P PBE1PBE DEF2TZVPP OPT(calcall) FREQ SCF(tight) INT(ultrafine)

 112266-hexamethyl-3p_2c_gn

 2 1
 N        3.5176720000       -0.0098680000       -0.0012550000
 C        2.8539070000       -1.1271250000       -0.4206520000
 C        1.4622670000       -1.1231590000       -0.4142120000
 C        2.8561540000        1.1102670000        0.4174890000
 C        1.4659770000        1.1189540000        0.4132970000
 C        0.7420030000       -0.0010180000       -0.0004620000
 H        0.9612180000        2.0174250000        0.7709080000
 H        0.9507930000       -2.0178180000       -0.7715810000
 C       -0.7420030000        0.0010120000       -0.0004610000
 C       -1.4659810000       -1.1189700000        0.4132630000
 C       -2.8561580000       -1.1102730000        0.4174690000
 C       -1.4622640000        1.1231610000       -0.4141980000
 C       -2.8539030000        1.1271330000       -0.4206320000
 N       -3.5176720000        0.0098880000       -0.0012130000
 H       -0.9507860000        2.0178160000       -0.7715720000
 H       -0.9612260000       -2.0174610000        0.7708290000
 C       -4.9872850000       -0.0196570000        0.0122590000
 H       -5.3907970000        0.9291960000       -0.3424630000
 H       -5.3438300000       -0.1969700000        1.0354490000
 H       -5.3470320000       -0.8253190000       -0.6411400000
 C        4.9872850000        0.0196860000        0.0122110000
 H        5.3908030000       -0.9288580000       -0.3433270000
 H        5.3438560000        0.1961640000        1.0355440000
 H        5.3469990000        0.8258860000       -0.6405300000
 C       -3.6052000000        2.3301020000       -0.8822020000
 H       -2.9007420000        3.1143750000       -1.1821230000
 H       -4.2460410000        2.7425700000       -0.0868450000
 H       -4.2432750000        2.1049930000       -1.7514530000
 C        3.6343660000        2.2947260000        0.8731380000
 H        4.2902400000        2.6817040000        0.0770960000
 H        4.2760760000        2.0521220000        1.7352140000
 H        2.9551180000        3.1002510000        1.1741580000
 C       -3.6343730000       -2.2947490000        0.8730690000
 H       -2.9551290000       -3.1004150000        1.1737220000
 H       -4.2905320000       -2.6814730000        0.0771430000
 H       -4.2757950000       -2.0522590000        1.7353950000
 C        3.6052070000       -2.3301070000       -0.8821800000
 H        4.2431530000       -2.1050680000       -1.7515460000
 H        2.9007510000       -3.1144500000       -1.1819240000
 H        4.2461770000       -2.7424450000       -0.0868610000

