%nproc=8
%mem=18000mb
#P PBE1PBE DEF2TZVPP OPT FREQ SCF(tight) INT(ultrafine)

 phenol_n_gn

 0 1
 C       -0.1444200000       -0.4923200000        0.0000600000
 H       -2.0651900000       -0.4903800000        0.0001400000
 O       -1.3537200000       -1.1517300000        0.0001300000
 C        1.0130100000       -1.2761400000        0.0000400000
 C        2.2599900000       -0.6558800000       -0.0000200000
 C        2.3664400000        0.7372800000       -0.0000700000
 C        1.2057100000        1.5104900000       -0.0000500000
 C       -0.0502000000        0.9027100000        0.0000200000
 H        0.9192100000       -2.3577700000        0.0000800000
 H        3.1572200000       -1.2690400000       -0.0000300000
 H        3.3422400000        1.2133300000       -0.0001200000
 H        1.2715900000        2.5951900000       -0.0000800000
 H       -0.9544800000        1.5093300000        0.0000300000

