%nproc=8
%mem=18000mb
#P PBE1PBE DEF2TZVPP OPT FREQ SCF(tight) INT(ultrafine)

 11-bis-a-cyanobenzyl-3l_2c_gn

 2 1
 N        3.4922780000       -0.6501580000       -0.6499570000
 C        2.7918740000       -1.5806220000       -1.3286470000
 C        1.4158730000       -1.6451310000       -1.2288580000
 C        2.8731130000        0.2439150000        0.1351930000
 C        1.4928950000        0.2298310000        0.2697450000
 C        0.7338800000       -0.7292610000       -0.4116660000
 C       -0.7415870000       -0.7875960000       -0.2630500000
 C       -1.4054860000       -2.0202170000       -0.1561290000
 C       -1.5152910000        0.3786500000       -0.2139680000
 C       -2.8904030000        0.2906350000       -0.0610260000
 C       -2.7769670000       -2.0466030000        0.0076050000
 N       -3.4903190000       -0.9042860000        0.0503260000
 H       -0.8655910000       -2.9691040000       -0.1647250000
 H       -3.3315180000       -2.9811600000        0.1258150000
 H        3.3646800000       -2.2800830000       -1.9431760000
 H        0.8887060000       -2.4047410000       -1.8092440000
 H        1.0322970000        0.9577150000        0.9404780000
 H        3.5176190000        0.9589650000        0.6534180000
 H       -3.5466030000        1.1645300000       -0.0254190000
 H       -1.0689870000        1.3697880000       -0.3149540000
 C        5.0206070000       -0.6647840000       -0.7777010000
 C        5.4646980000       -1.9570930000       -0.2529860000
 N        5.7771520000       -2.9942200000        0.1509750000
 C        5.6871230000        0.5215470000       -0.1387380000
 H        5.2054610000       -0.6481120000       -1.8645310000
 C        5.8426290000        1.6944670000       -0.8913550000
 C        6.1524280000        0.4665940000        1.1822730000
 C        6.7592030000        1.5862970000        1.7469430000
 C        6.9052500000        2.7549310000        0.9989000000
 C        6.4487730000        2.8090890000       -0.3193310000
 H        6.0687200000       -0.4567400000        1.7627380000
 H        7.1361640000        1.5392610000        2.7708380000
 H        7.3937950000        3.6262760000        1.4411700000
 H        5.5097950000        1.7334940000       -1.9330380000
 H        6.5840270000        3.7176440000       -0.9100470000
 C       -5.0006480000       -1.0052120000        0.2849670000
 C       -5.1689250000       -1.4648010000        1.6646690000
 N       -5.2615170000       -1.8430260000        2.7531430000
 C       -5.7402840000        0.2633150000       -0.0407890000
 H       -5.3317160000       -1.8083890000       -0.3934100000
 C       -6.0727660000        1.1874430000        0.9586690000
 C       -6.7526630000        2.3557040000        0.6195840000
 C       -7.1017750000        2.6016320000       -0.7081920000
 C       -6.7771380000        1.6784030000       -1.7042040000
 C       -6.1004130000        0.5084210000       -1.3737570000
 H       -5.8292290000        0.9848790000        2.0055980000
 H       -7.0263770000        3.0685540000        1.4003480000
 H       -7.6460620000        3.5125400000       -0.9679710000
 H       -7.0707730000        1.8626680000       -2.7398410000
 H       -5.8715580000       -0.2234860000       -2.1543580000

