%nproc=8
%mem=18000mb
#P PBE1PBE DEF2TZVPP OPT FREQ SCF(tight) INT(ultrafine)

 11-bis-a-cyanobenzyl-3l_2c_ox

 3 2
 N        3.5115220000       -0.5615310000       -0.6598080000
 C        2.8858060000       -1.7300790000       -0.4190190000
 C        1.5095930000       -1.7811810000       -0.2599390000
 C        2.8055380000        0.5862110000       -0.7481250000
 C        1.4293340000        0.5899710000       -0.6124050000
 C        0.7449220000       -0.6124090000       -0.3656370000
 C       -0.7361610000       -0.6614710000       -0.2350450000
 C       -1.3487020000       -1.4860970000        0.7173260000
 C       -1.5738880000        0.0925120000       -1.0741340000
 C       -2.9479780000       -0.0176610000       -0.9590090000
 C       -2.7309130000       -1.5553560000        0.7923720000
 N       -3.5067670000       -0.8360820000       -0.0424060000
 H       -0.7705080000       -2.0809280000        1.4278530000
 H       -3.2400290000       -2.1948490000        1.5192880000
 H        3.5083340000       -2.6281950000       -0.3690900000
 H        1.0542160000       -2.7592810000       -0.0895030000
 H        0.9084060000        1.5471120000       -0.6840320000
 H        3.3740520000        1.5010770000       -0.9303280000
 H       -3.6318330000        0.5393000000       -1.6035390000
 H       -1.1749360000        0.7462860000       -1.8527040000
 C        5.0069470000       -0.5040250000       -0.9283730000
 C        5.5954240000       -1.8248530000       -0.7298340000
 N        6.0693920000       -2.8650290000       -0.5535010000
 C        5.7376050000        0.5445100000       -0.1081730000
 H        5.0964960000       -0.2533560000       -1.9992870000
 C        5.9187110000        0.3779750000        1.2838790000
 C        6.3424000000        1.6205630000       -0.7425710000
 C        7.1133110000        2.5462700000        0.0099620000
 C        7.2758880000        2.3845510000        1.3932170000
 C        6.6782120000        1.3053920000        2.0283740000
 H        6.2653730000        1.7574070000       -1.8254540000
 H        7.5916280000        3.3842680000       -0.5047320000
 H        7.8806020000        3.0973970000        1.9590230000
 H        5.4994330000       -0.4919740000        1.7991310000
 H        6.8071980000        1.1522190000        3.1026590000
 C       -5.0193330000       -1.0017230000       -0.0496410000
 C       -5.4322570000       -1.7947960000        1.1041790000
 N       -5.7649430000       -2.4075380000        2.0269690000
 C       -5.7849520000        0.3074220000       -0.1100880000
 H       -5.2372110000       -1.5898090000       -0.9579290000
 C       -5.8344230000        1.1696250000        1.0091430000
 C       -6.6249490000        2.3379100000        0.9842040000
 C       -7.3821170000        2.6422160000       -0.1382090000
 C       -7.3493340000        1.7828960000       -1.2455760000
 C       -6.5487990000        0.6102100000       -1.2290150000
 H       -5.2860190000        0.9244730000        1.9241640000
 H       -6.6509800000        2.9858290000        1.8637890000
 H       -8.0113720000        3.5352950000       -0.1586860000
 H       -7.9529830000        2.0039800000       -2.1302470000
 H       -6.5736010000       -0.0564910000       -2.0963290000

