%nproc=8
%mem=18000mb
#P PBE1PBE DEF2TZVPP OPT FREQ SCF(tight) INT(ultrafine)

 i47di-1-co2et-23-ch23-5-met_n_gn

 0 1
 C        2.8368930000       -1.8663170000        0.0164760000
 C        3.5574950000       -0.7250180000        0.0578710000
 C        1.3499030000       -1.9621340000       -0.0007910000
 C        0.6465530000       -0.6615830000       -0.0395980000
 C        2.8608330000        0.6005230000        0.0778270000
 C        1.4038830000        0.5420320000        0.0262360000
 C       -0.7065860000       -0.3063710000       -0.0881850000
 C        0.5001110000        1.5921690000        0.0144860000
 N       -0.7463900000        1.0711520000       -0.0550400000
 O        0.8154770000       -3.0502170000        0.0388780000
 O        3.4869140000        1.6458490000        0.1290280000
 C       -1.7875710000        2.0921770000       -0.0511760000
 C       -0.9907160000        3.3702930000       -0.3596700000
 H       -2.2761210000        2.1148850000        0.9360540000
 H       -2.5611800000        1.8653940000       -0.7943800000
 C        0.4556230000        3.0772650000        0.0846540000
 H       -1.4232200000        4.2517160000        0.1329730000
 H       -1.0099990000        3.5576710000       -1.4442410000
 H        0.6509700000        3.4104140000        1.1189610000
 H        1.2217460000        3.5505420000       -0.5444060000
 C       -1.9138450000       -1.1474230000       -0.1784230000
 O       -1.9392590000       -2.3095840000       -0.4750320000
 O       -3.0223080000       -0.4369750000        0.1185380000
 C       -4.2521570000       -1.1580360000        0.0578160000
 C       -5.3713250000       -0.2180830000        0.4256580000
 H       -4.1943130000       -2.0182170000        0.7437700000
 H       -4.3758090000       -1.5728620000       -0.9556720000
 H       -5.2319220000        0.1855170000        1.4395820000
 H       -6.3324520000       -0.7520370000        0.3995840000
 H       -5.4320270000        0.6259290000       -0.2777970000
 C        5.0474080000       -0.6826680000        0.0932740000
 H        5.4815900000       -1.6908390000        0.0792750000
 H        5.3942200000       -0.1495870000        0.9923050000
 H        5.4345150000       -0.1084470000       -0.7630410000
 H        3.3331240000       -2.8416700000        0.0122820000

