%nproc=8
%mem=18000mb
#P PBE1PBE DEF2TZVPP OPT FREQ SCF(tight) INT(ultrafine)

 4-2-pyridyl-3c_2c_rd

 1 2
 C       -4.7692130000       -1.2172640000       -0.1116620000
 C       -4.7641130000        0.1484310000       -0.4986780000
 C       -3.5942280000        0.8641390000       -0.4606210000
 C       -3.5974110000       -1.7773730000        0.3079300000
 N       -2.4406200000       -1.0616480000        0.3542130000
 C       -2.3792750000        0.2643660000       -0.0410560000
 C       -1.1276900000        0.9532440000       -0.0102970000
 N        0.0670400000        0.2415440000        0.0729070000
 C       -1.2372220000       -1.6271920000        0.9336080000
 C       -0.0286460000       -1.2146720000        0.1264080000
 H       -1.3213750000       -2.7216150000        0.9401860000
 H       -1.1408030000       -1.2844920000        1.9787420000
 H       -0.0712220000       -1.6201110000       -0.8962410000
 H        0.8742840000       -1.6187670000        0.5938540000
 C       -1.0580130000        2.3654580000       -0.0526160000
 C        0.1485100000        3.0137950000       -0.0100540000
 C        1.3388440000        2.2562250000        0.0397780000
 C        1.2860220000        0.8812810000        0.0612930000
 H       -5.6765800000       -1.8201470000       -0.1455920000
 H       -3.5222730000       -2.8165860000        0.6335200000
 H        2.3129600000        2.7435710000        0.0113940000
 H       -3.5844590000        1.8995220000       -0.7984110000
 H       -1.9833500000        2.9387410000       -0.0801340000
 H       -5.6835320000        0.6247560000       -0.8437970000
 H        0.1900520000        4.1041830000       -0.0254280000
 C        2.5473290000        0.0969290000       -0.0067550000
 N        2.5888100000       -0.8975330000       -0.8982280000
 C        3.6484100000        0.4594950000        0.7780720000
 C        3.7322150000       -1.5528510000       -1.0622680000
 C        4.8913240000       -1.2588590000       -0.3406550000
 C        4.8414710000       -0.2380200000        0.6032300000
 H        3.7319070000       -2.3553020000       -1.8078130000
 H        5.8073720000       -1.8269370000       -0.5139960000
 H        5.7203430000        0.0139400000        1.2012040000
 H        3.5701680000        1.2599070000        1.5163390000

