%nproc=8
%mem=18000mb
#P PBE1PBE DEF2TZVPP OPT FREQ SCF(tight) INT(ultrafine)

 4-2-pyridyl-3c_2c_gn

 2 1
 C       -4.7558900000       -1.1748760000       -0.1677410000
 C       -4.6869820000        0.0894040000       -0.7502180000
 C       -3.4899300000        0.8034100000       -0.7072510000
 C       -3.6204720000       -1.6944090000        0.4289380000
 N       -2.4740350000       -0.9884970000        0.4611140000
 C       -2.3754270000        0.2547010000       -0.0784610000
 C       -1.0880570000        0.9744890000        0.0291560000
 N        0.0763450000        0.2549420000        0.1145910000
 C       -1.2688470000       -1.5300770000        1.1015590000
 C       -0.0576280000       -1.2084540000        0.2621340000
 H       -1.3753040000       -2.6183910000        1.1931800000
 H       -1.1925100000       -1.1047520000        2.1160740000
 H       -0.0935270000       -1.6706560000       -0.7350580000
 H        0.8396310000       -1.5944000000        0.7559740000
 C       -1.0535320000        2.3582650000        0.0265880000
 C        0.1779740000        3.0157040000        0.0845900000
 C        1.3397570000        2.2676180000        0.0993720000
 C        1.2959420000        0.8654100000        0.0935670000
 H       -5.6740340000       -1.7660570000       -0.1818450000
 H       -3.5977860000       -2.6829420000        0.8935860000
 H        2.3145630000        2.7563710000        0.0776450000
 H       -3.4186020000        1.7795460000       -1.1882050000
 H       -1.9818940000        2.9292350000        0.0014790000
 H       -5.5607640000        0.5193200000       -1.2470420000
 H        0.2194290000        4.1076640000        0.0925210000
 C        2.5443340000        0.0816790000       -0.0071140000
 N        2.4867260000       -1.0085790000       -0.7815840000
 C        3.7216480000        0.5265440000        0.6080610000
 C        3.6053690000       -1.6861520000       -1.0001650000
 C        4.8355730000       -1.3207240000       -0.4382950000
 C        4.8884840000       -0.2043730000        0.3895080000
 H        3.5312080000       -2.5619290000       -1.6528610000
 H        5.7301600000       -1.9115570000       -0.6470790000
 H        5.8263250000        0.1004000000        0.8595260000
 H        3.7359500000        1.4041310000        1.2578870000

