%nproc=8
%mem=18000mb
#P PBE1PBE DEF2TZVPP OPT FREQ SCF(tight) INT(ultrafine)

 11-dimethyl-22-bipyr_2c_rd

 1 2
 C       -2.8475900000        1.4400390000        0.5660020000
 C       -3.5211900000        0.2614950000        0.1659780000
 C       -1.4734900000        1.4867570000        0.4784100000
 C       -2.7938510000       -0.7665350000       -0.3636930000
 N       -1.4336990000       -0.7045740000       -0.4931830000
 C       -0.7314100000        0.3890220000       -0.0001410000
 C        0.7125490000        0.3968450000        0.0230640000
 C        1.4340660000        1.5166910000       -0.4391290000
 C        2.8047290000        1.4829390000       -0.5683540000
 C        3.4960240000        0.2922120000       -0.2325450000
 N        1.4359960000       -0.7031830000        0.4727270000
 C        2.7919700000       -0.7530280000        0.2923900000
 H       -3.4039870000        2.2871750000        0.9709430000
 H       -0.9248660000        2.3547460000        0.8482920000
 H       -4.6033000000        0.1618430000        0.2553310000
 H       -3.2620670000       -1.6802350000       -0.7335810000
 H        0.8693600000        2.3901660000       -0.7704300000
 H        3.3440050000        2.3460860000       -0.9622610000
 H        3.2761410000       -1.6736400000        0.6240570000
 H        4.5737240000        0.1986460000       -0.3696740000
 C       -0.7695880000       -1.6606430000       -1.3724230000
 H       -1.5299060000       -2.2590120000       -1.8866510000
 H       -0.0988030000       -2.3394360000       -0.8286060000
 H       -0.1806130000       -1.1139290000       -2.1238160000
 C        0.8597590000       -1.6241710000        1.4490860000
 H       -0.1979140000       -1.8200910000        1.2457400000
 H        0.9424150000       -1.1933180000        2.4597550000
 H        1.4078640000       -2.5744530000        1.4222170000

