%nproc=8
%mem=18000mb
#P PBE1PBE DEF2TZVPP OPT FREQ SCF(tight) INT(ultrafine)

 11-dimethyl-22-bipyr_2c_gn

 2 1
 C       -2.7619540000       -1.0615910000       -1.1370620000
 C       -3.5074150000       -0.2078710000       -0.3323170000
 C       -1.3661570000       -0.9849640000       -1.0946930000
 C       -2.8439210000        0.6946150000        0.4849630000
 N       -1.4974240000        0.7606790000        0.5184640000
 C       -0.7442250000       -0.0703270000       -0.2581880000
 C        0.7442320000        0.0702950000       -0.2581800000
 C        1.3661840000        0.9848270000       -1.0947830000
 C        2.7619830000        1.0614480000       -1.1371280000
 C        3.5074240000        0.2078270000       -0.3322590000
 N        1.4974120000       -0.7606160000        0.5185940000
 C        2.8439100000       -0.6945560000        0.4851170000
 H       -3.2544990000       -1.7795600000       -1.7987060000
 H       -0.7545340000       -1.6325200000       -1.7274260000
 H       -4.5997470000       -0.2259740000       -0.3291790000
 H       -3.3802500000        1.3914640000        1.1329850000
 H        0.7545770000        1.6323050000       -1.7276110000
 H        3.2545430000        1.7793340000       -1.7988490000
 H        3.3802230000       -1.3913250000        1.1332390000
 H        4.5997560000        0.2259300000       -0.3290980000
 C       -0.8601370000        1.7693710000        1.3837540000
 H       -1.6135520000        2.1809040000        2.0643940000
 H       -0.4480980000        2.5821710000        0.7700710000
 H       -0.0611480000        1.3092500000        1.9780680000
 C        0.8601010000       -1.7691930000        1.3840000000
 H        0.4480220000       -2.5820430000        0.7704100000
 H        0.0611390000       -1.3089790000        1.9782780000
 H        1.6135110000       -2.1806830000        2.0646710000

