%nproc=8
%mem=18000mb
#P PBE1PBE DEF2TZVPP OPT FREQ SCF(tight) INT(ultrafine)

 1t-nch32_n_rd

-1 2
 C        2.6745000000       -3.3763490000       -0.7427880000
 C        4.0146400000       -2.9292630000       -0.8451410000
 C        1.6768810000       -2.4738510000       -0.4491780000
 C        4.3251720000       -1.6059990000       -0.6464580000
 C        3.3180910000       -0.6435090000       -0.3300830000
 C        1.9648290000       -1.1039050000       -0.2377040000
 H        2.4361520000       -4.4320950000       -0.8978110000
 H        0.6309710000       -2.7781840000       -0.3614600000
 H        4.8080000000       -3.6447900000       -1.0829630000
 H        5.3507610000       -1.2358040000       -0.7160080000
 C        0.9072360000       -0.1616060000        0.0398180000
 C        1.3357680000        1.1925650000        0.3068290000
 C        2.7359410000        1.5092780000        0.1894960000
 N        3.6920240000        0.6307580000       -0.1404840000
 C        0.4427560000        2.2034690000        0.7479160000
 C        0.8736820000        3.4821800000        1.0178280000
 C        2.2410250000        3.8122310000        0.8535680000
 C        3.1392060000        2.8554900000        0.4544110000
 H        4.2035220000        3.0727290000        0.3379160000
 H        2.5822340000        4.8319390000        1.0568340000
 H       -0.6118170000        1.9531780000        0.8743530000
 H        0.1621310000        4.2390250000        1.3573640000
 N       -0.3370120000       -0.6246220000        0.1232950000
 C       -1.4898700000       -0.0818930000       -0.2811230000
 C       -2.7480480000       -0.5883720000        0.2550940000
 C       -3.9394590000       -0.1430530000       -0.2809960000
 C       -4.0359440000        0.8094750000       -1.3695000000
 C       -2.7639200000        1.2946080000       -1.8755230000
 C       -1.5754460000        0.8741430000       -1.3464530000
 H       -4.8976710000       -0.4882780000        0.1102880000
 H       -2.7987200000        2.0031840000       -2.7077330000
 H       -0.6318100000        1.2369360000       -1.7626580000
 O       -5.1296570000        1.1903420000       -1.8276400000
 N       -2.7149300000       -1.5663350000        1.2599380000
 C       -1.9574000000       -1.3043280000        2.4609920000
 H       -1.7046430000       -2.2555590000        2.9588630000
 H       -2.5263730000       -0.6819910000        3.1871170000
 H       -1.0177210000       -0.7998350000        2.2123540000
 C       -3.9204150000       -2.3001780000        1.5125490000
 H       -3.6816670000       -3.1804330000        2.1320060000
 H       -4.3624650000       -2.6511120000        0.5684870000
 H       -4.6995570000       -1.7170420000        2.0535940000

