%nproc=8
%mem=18000mb
#P PBE1PBE DEF2TZVPP OPT FREQ SCF(tight) INT(ultrafine)

 1t-nch32_n_gn

 0 1
 C        1.8923490000       -3.6506950000       -0.2393310000
 C        3.2746830000       -3.4863210000       -0.5298760000
 C        1.1075330000       -2.5601160000        0.0303220000
 C        3.8436940000       -2.2410930000       -0.5332480000
 C        3.0657530000       -1.0765050000       -0.2497580000
 C        1.6653140000       -1.2496520000        0.0259530000
 H        1.4585130000       -4.6533120000       -0.2282530000
 H        0.0467390000       -2.6769130000        0.2615560000
 H        3.8856240000       -4.3661520000       -0.7470880000
 H        4.9028220000       -2.0865520000       -0.7475540000
 C        0.8901670000       -0.0945280000        0.2750600000
 C        1.5312980000        1.1670350000        0.2874450000
 C        2.9458090000        1.1990540000        0.0110130000
 N        3.6728180000        0.1130060000       -0.2563450000
 C        0.8523970000        2.3889250000        0.5696550000
 C        1.5254080000        3.5823920000        0.5659440000
 C        2.9181660000        3.6213520000        0.2820340000
 C        3.6044590000        2.4682950000        0.0150290000
 H        4.6743990000        2.4653770000       -0.2012320000
 H        3.4401250000        4.5814850000        0.2823130000
 H       -0.2160780000        2.3687910000        0.7939060000
 H        0.9920360000        4.5101790000        0.7852600000
 N       -0.4406120000       -0.2364120000        0.6089120000
 C       -1.4373130000        0.0889520000       -0.1293500000
 C       -2.8246840000       -0.1253900000        0.3905950000
 C       -3.8653990000       -0.0292600000       -0.5002970000
 C       -3.7035670000        0.3650630000       -1.8885280000
 C       -2.3243720000        0.6767050000       -2.3402870000
 C       -1.2787490000        0.5712500000       -1.5078680000
 H       -4.8975990000       -0.1947640000       -0.1936650000
 H       -2.2148190000        0.9912060000       -3.3812050000
 H       -0.2600530000        0.7856740000       -1.8382480000
 O       -4.6437830000        0.4745880000       -2.6615800000
 N       -3.0052580000       -0.5126430000        1.6869910000
 C       -2.1645200000       -0.1063070000        2.7975120000
 H       -1.5775680000       -0.9472100000        3.2014470000
 H       -2.8053390000        0.2928090000        3.6016590000
 H       -1.4599320000        0.6763730000        2.5035540000
 C       -4.2777090000       -1.0734070000        2.0672750000
 H       -4.1640440000       -1.6040140000        3.0227970000
 H       -4.6215740000       -1.7960630000        1.3127540000
 H       -5.0659390000       -0.3057530000        2.1919690000

