%nproc=8
%mem=18000mb
#P PBE1PBE DEF2TZVPP OPT FREQ SCF(tight) INT(ultrafine)

 11-diallyl-3l_2c_gn

 2 1
 N       -3.5024610000        0.2983110000       -0.3408930000
 C       -2.8771450000       -0.8005100000        0.1189810000
 C       -1.5002760000       -0.8327310000        0.2563800000
 C       -2.7990450000        1.3979050000       -0.6675640000
 C       -1.4213520000        1.4288360000       -0.5412350000
 C       -0.7383830000        0.2973770000       -0.0727420000
 C        0.7383830000        0.2973770000        0.0727420000
 C        1.5002760000       -0.8327310000       -0.2563800000
 C        2.8771440000       -0.8005100000       -0.1189810000
 N        3.5024610000        0.2983100000        0.3408930000
 C        1.4213520000        1.4288350000        0.5412350000
 C        2.7990450000        1.3979040000        0.6675650000
 H       -3.3677700000        2.2534830000       -1.0383870000
 H       -0.8951960000        2.3387840000       -0.8360630000
 H       -3.5210840000       -1.6432110000        0.3840370000
 H       -1.0410970000       -1.7412400000        0.6508360000
 H        3.3677700000        2.2534830000        1.0383880000
 H        0.8951960000        2.3387840000        0.8360630000
 H        1.0410970000       -1.7412400000       -0.6508360000
 H        3.5210840000       -1.6432120000       -0.3840370000
 C       -4.9918410000        0.2818460000       -0.5269760000
 C       -5.7085890000       -0.4073020000        0.5860230000
 H       -5.1846090000       -0.2036360000       -1.4967930000
 H       -5.2935530000        1.3363820000       -0.6087970000
 C       -6.4923850000       -1.4714020000        0.3964240000
 C        4.9918410000        0.2818460000        0.5269760000
 C        5.7085890000       -0.4073010000       -0.5860230000
 H        5.1846090000       -0.2036370000        1.4967930000
 H        5.2935530000        1.3363810000        0.6087990000
 C        6.4923850000       -1.4714020000       -0.3964240000
 H        5.6214140000        0.0452600000       -1.5810290000
 H        6.6286540000       -1.9266270000        0.5904160000
 H        7.0539900000       -1.9114810000       -1.2246670000
 H       -5.6214140000        0.0452580000        1.5810290000
 H       -6.6286540000       -1.9266260000       -0.5904170000
 H       -7.0539900000       -1.9114820000        1.2246670000

