%nproc=8
%mem=18000mb
#P PBE1PBE DEF2TZVPP OPT FREQ SCF(tight) INT(ultrafine)

 27-dimethyl-2-7-phenanthrolinium_2c_ox

 3 2
 C        3.4381470000        0.8311530000        0.0000140000
 C        2.3937500000        1.7669970000        0.0000280000
 C        1.0627550000        1.3186000000        0.0000220000
 C        0.7970630000       -0.0821280000        0.0000030000
 N        3.1715070000       -0.4827530000       -0.0000060000
 C        1.8938160000       -0.9433760000       -0.0000110000
 C       -0.0246430000        2.2404510000        0.0000330000
 C       -1.3525220000        1.7904960000        0.0000210000
 C       -1.6465530000        0.4171870000       -0.0000010000
 C       -0.5859250000       -0.5588300000       -0.0000030000
 N       -2.9766380000       -0.0037370000       -0.0000130000
 C       -0.9331020000       -1.9251770000       -0.0000070000
 C       -2.2641840000       -2.2913800000       -0.0000120000
 C       -3.2723520000       -1.2928070000       -0.0000180000
 H        4.4902660000        1.1354600000        0.0000180000
 H        2.6412530000        2.8340180000        0.0000440000
 H        1.8041600000       -2.0320910000       -0.0000280000
 H        0.1721290000        3.3188870000        0.0000510000
 H       -2.1481190000        2.5393120000        0.0000320000
 H       -0.1777630000       -2.7138580000       -0.0000030000
 H       -2.5697480000       -3.3433270000       -0.0000110000
 H       -4.3331500000       -1.5673750000       -0.0000280000
 C       -4.0840470000        0.9826730000       -0.0000200000
 H       -4.0311880000        1.6001880000        0.9080350000
 H       -5.0345140000        0.4368630000       -0.0000500000
 H       -4.0311490000        1.6002170000       -0.9080540000
 C        4.2796660000       -1.4678170000       -0.0000180000
 H        5.2373630000       -0.9350360000       -0.0000450000
 H        4.2025600000       -2.0920510000       -0.9031350000
 H        4.2025980000       -2.0920300000        0.9031180000

