%nproc=8
%mem=18000mb
#P PBE1PBE DEF2TZVPP OPT FREQ SCF(tight) INT(ultrafine)

 27-dimethyl-2-7-phenanthrolinium_2c_gn

 2 1
 C        3.4117280000        0.8241920000       -0.0000000000
 C        2.3976090000        1.7446320000        0.0000000000
 C        1.0528720000        1.3141510000        0.0000000000
 C        0.7815220000       -0.0798730000       -0.0000000000
 N        3.1348750000       -0.5094100000       -0.0000000000
 C        1.8773650000       -0.9550580000       -0.0000000000
 C       -0.0317550000        2.2436710000        0.0000000000
 C       -1.3249800000        1.8150710000        0.0000000000
 C       -1.6310210000        0.4183490000        0.0000000000
 C       -0.5941380000       -0.5501690000       -0.0000000000
 N       -2.9423820000       -0.0003690000       -0.0000000000
 C       -0.9477900000       -1.9141600000       -0.0000000000
 C       -2.2762310000       -2.2889530000       -0.0000000000
 C       -3.2550300000       -1.3006330000       -0.0000000000
 H        4.4676650000        1.1022360000       -0.0000000000
 H        2.6425550000        2.8089150000        0.0000000000
 H        1.7660070000       -2.0394110000       -0.0000000000
 H        0.1861360000        3.3142810000        0.0000000000
 H       -2.1242820000        2.5551460000        0.0000000000
 H       -0.1862310000       -2.6957040000       -0.0000000000
 H       -2.5772050000       -3.3380910000       -0.0000010000
 H       -4.3187660000       -1.5481580000       -0.0000000000
 C       -4.0390100000        0.9833970000        0.0000000000
 H       -3.9834200000        1.6070210000       -0.9021420000
 H       -3.9834200000        1.6070210000        0.9021430000
 H       -4.9922580000        0.4449840000        0.0000000000
 C        4.2654750000       -1.4537930000        0.0000010000
 H        4.8747160000       -1.2867010000       -0.8987810000
 H        3.8866520000       -2.4813170000       -0.0000110000
 H        4.8747010000       -1.2867150000        0.8987950000

