%nproc=8
%mem=18000mb
#P PBE1PBE DEF2TZVPP OPT FREQ SCF(tight) INT(ultrafine)

 11-bis-2-pyridylmethyl-3l_2c_ox

 3 2
 N       -3.3306120000       -1.1436400000       -0.0193690000
 C       -2.8274100000       -0.5353770000       -1.1126280000
 C       -1.5197710000       -0.0805690000       -1.1330070000
 C       -2.5798290000       -1.2864470000        1.0918440000
 C       -1.2710830000       -0.8408170000        1.1303090000
 C       -0.7063990000       -0.2316870000       -0.0009430000
 C        0.7063990000        0.2316840000       -0.0009780000
 C        1.5197680000        0.0804040000       -1.1330230000
 C        1.2710860000        0.8409760000        1.1301840000
 C        2.5798310000        1.2866020000        1.0916520000
 C        2.8274070000        0.5352150000       -1.1127130000
 N        3.3306110000        1.1436360000       -0.0195430000
 H        3.0464320000        1.7820670000        1.9458540000
 H        0.6972230000        1.0109170000        2.0433590000
 H        1.1601730000       -0.4078920000       -2.0409040000
 H        3.4888210000        0.4374830000       -1.9745300000
 H       -0.6972170000       -1.0106270000        2.0435060000
 H       -3.0464270000       -1.7817900000        1.9461190000
 H       -3.4888270000       -0.4377670000       -1.9744570000
 H       -1.1601790000        0.4075960000       -2.0409590000
 C       -4.7215020000       -1.6200320000       -0.0346420000
 C       -5.7370050000       -0.4990150000        0.0214560000
 H       -4.8590400000       -2.3173660000        0.8039540000
 H       -4.8713020000       -2.2100730000       -0.9562800000
 C       -7.0885760000       -0.8105990000        0.3416750000
 C       -8.0276140000        0.2117510000        0.3136770000
 C       -7.5954570000        1.4958080000       -0.0170470000
 C       -6.2197300000        1.7024040000       -0.3034470000
 N       -5.3217410000        0.7199900000       -0.2877570000
 H       -7.3830110000       -1.8347550000        0.5883420000
 H       -9.0770660000        0.0133950000        0.5456980000
 H       -8.2886110000        2.3407540000       -0.0462980000
 H       -5.8548870000        2.7074480000       -0.5410830000
 C        4.7215010000        1.6200280000       -0.0348880000
 C        5.7370050000        0.4990200000        0.0213660000
 H        4.8590400000        2.3174830000        0.8036060000
 H        4.8712970000        2.2099360000       -0.9566120000
 C        7.0885750000        0.8106500000        0.3415440000
 N        5.3217430000       -0.7200280000       -0.2876790000
 C        6.2197330000       -1.7024440000       -0.3032290000
 C        7.5954570000       -1.4958090000       -0.0168470000
 C        8.0276130000       -0.2117050000        0.3136970000
 H        5.8548930000       -2.7075200000       -0.5407350000
 H        8.2886120000       -2.3407590000       -0.0459760000
 H        9.0770640000       -0.0133160000        0.5456960000
 H        7.3830080000        1.8348400000        0.5880700000

