%nproc=8
%mem=18000mb
#P PBE1PBE DEF2TZVPP OPT FREQ SCF(tight) INT(ultrafine)

 11-bis-2-pyridylmethyl-3l_2c_rd

 1 2
 N       -3.5453850000       -1.2690670000        0.1667380000
 C       -2.8526790000       -0.9102260000        1.2855900000
 C       -1.4870890000       -0.8967890000        1.3078970000
 C       -2.8512890000       -1.5917360000       -0.9625640000
 C       -1.4871600000       -1.5908710000       -0.9944140000
 C       -0.7145730000       -1.2419630000        0.1566270000
 C        0.7145720000       -1.2419630000        0.1566240000
 C        1.4870920000       -0.8967950000        1.3078940000
 C        1.4871550000       -1.5908660000       -0.9944200000
 C        2.8512840000       -1.5917320000       -0.9625760000
 C        2.8526820000       -0.9102330000        1.2855830000
 N        3.5453830000       -1.2690680000        0.1667260000
 H        3.4496410000       -1.8560270000       -1.8356230000
 H        1.0130950000       -1.8712170000       -1.9341610000
 H        1.0115420000       -0.6090000000        2.2444240000
 H        3.4543250000       -0.6252720000        2.1473290000
 H       -1.0131040000       -1.8712270000       -1.9341550000
 H       -3.4496490000       -1.8560360000       -1.8356080000
 H       -3.4543190000       -0.6252600000        2.1473380000
 H       -1.0115360000       -0.6089890000        2.2444240000
 C       -5.0025030000       -1.2105860000        0.1547390000
 C       -5.5286620000        0.1945540000       -0.0500280000
 H       -5.3638560000       -1.6009020000        1.1188730000
 H       -5.3690840000       -1.8869050000       -0.6280800000
 C       -6.5030320000        0.4754480000       -1.0082160000
 C       -6.9660080000        1.7864390000       -1.1147410000
 C       -6.4336740000        2.7564110000       -0.2719200000
 C       -5.4572320000        2.3708990000        0.6482440000
 N       -5.0195930000        1.1211430000        0.7590370000
 H       -6.8966230000       -0.3118590000       -1.6556170000
 H       -7.7309300000        2.0447250000       -1.8509260000
 H       -6.7654680000        3.7953060000       -0.3216980000
 H       -5.0144100000        3.1071990000        1.3278650000
 C        5.0025020000       -1.2105900000        0.1547230000
 C        5.5286620000        0.1945520000       -0.0500330000
 H        5.3690790000       -1.8869010000       -0.6281040000
 H        5.3638580000       -1.6009150000        1.1188520000
 C        6.5030240000        0.4754540000       -1.0082270000
 N        5.0196020000        1.1211330000        0.7590470000
 C        5.4572430000        2.3708890000        0.6482630000
 C        6.4336770000        2.7564100000       -0.2719050000
 C        6.9660020000        1.7864460000       -1.1147420000
 H        5.0144290000        3.1071820000        1.3278970000
 H        6.7654730000        3.7953040000       -0.3216740000
 H        7.7309180000        2.0447390000       -1.8509300000
 H        6.8966070000       -0.3118460000       -1.6556400000

