%nproc=8
%mem=18000mb
#P PBE1PBE DEF2TZVPP OPT FREQ SCF(tight) INT(ultrafine)

 11-bis-2-pyridylmethyl-3l_2c_gn

 2 1
 N        3.2629960000       -1.3034920000       -0.0744250000
 C        2.7929560000       -0.6827970000       -1.1736580000
 C        1.5057790000       -0.1688050000       -1.1979210000
 C        2.5062710000       -1.4058860000        1.0356750000
 C        1.2212300000       -0.9028590000        1.0702840000
 C        0.6906120000       -0.2693250000       -0.0656440000
 C       -0.6906110000        0.2693130000       -0.0656580000
 C       -1.5057860000        0.1687110000       -1.1979220000
 C       -1.2212180000        0.9029300000        1.0702280000
 C       -2.5062590000        1.4059560000        1.0355920000
 C       -2.7929630000        0.6827070000       -1.1736850000
 N       -3.2629930000        1.3034820000       -0.0744930000
 H       -2.9579340000        1.9093620000        1.8923790000
 H       -0.6345590000        1.0384430000        1.9803230000
 H       -1.1666000000       -0.3302430000       -2.1071790000
 H       -3.4620530000        0.6265040000       -2.0307330000
 H        0.6345790000       -1.0383060000        1.9803940000
 H        2.9579540000       -1.9092280000        1.8924950000
 H        3.4620400000       -0.6266540000       -2.0307140000
 H        1.1665850000        0.3300840000       -2.1072120000
 C        4.6654030000       -1.7411770000       -0.0646460000
 C        5.5980060000       -0.5453840000        0.0471950000
 H        4.8478010000       -2.2893120000       -1.0024050000
 H        4.8048270000       -2.4456380000        0.7643140000
 C        6.8191030000       -0.6573390000        0.7097500000
 C        7.6600240000        0.4552800000        0.7127320000
 C        7.2446740000        1.6186590000        0.0709310000
 C        5.9972160000        1.6260760000       -0.5524280000
 N        5.1956580000        0.5625410000       -0.5629570000
 H        7.1151400000       -1.5855660000        1.2043540000
 H        8.6289180000        0.4113030000        1.2156980000
 H        7.8739600000        2.5105770000        0.0533760000
 H        5.6337550000        2.5232650000       -1.0635060000
 C       -4.6653990000        1.7411700000       -0.0647350000
 C       -5.5980060000        0.5453900000        0.0472170000
 H       -4.8478070000        2.2892280000       -1.0025370000
 H       -4.8048110000        2.4457020000        0.7641680000
 C       -6.8190910000        0.6574020000        0.7097840000
 N       -5.1956720000       -0.5625850000       -0.5628550000
 C       -5.9972340000       -1.6261150000       -0.5522290000
 C       -7.2446820000       -1.6186450000        0.0711500000
 C       -7.6600160000       -0.4552140000        0.7128680000
 H       -5.6337860000       -2.5233460000       -1.0632430000
 H       -7.8739720000       -2.5105620000        0.0536760000
 H       -8.6289020000       -0.4111940000        1.2158460000
 H       -7.1151160000        1.5856680000        1.2043200000

