%nproc=8
%mem=18000mb
#P PBE1PBE DEF2TZVPP OPT FREQ SCF(tight) INT(ultrafine)

 4-methyl-3c_2c_gn

 2 1
 C        3.1117430000        1.0196100000        0.0914740000
 C        2.2790460000        2.1038380000        0.3131740000
 C        0.8947640000        1.9192380000        0.2946880000
 C        2.5815370000       -0.2574630000       -0.1215670000
 N        1.2280340000       -0.4049320000       -0.1052980000
 C        0.3764000000        0.6551720000        0.0652360000
 C       -1.0832160000        0.4292470000       -0.0204480000
 N       -1.5731310000       -0.8147200000        0.2354450000
 C        0.6171460000       -1.7311280000       -0.3008430000
 C       -0.6071930000       -1.8708330000        0.5685870000
 H        1.3394660000       -2.5051530000       -0.0212120000
 H        0.3779650000       -1.8599250000       -1.3699420000
 H       -0.3575240000       -1.7931140000        1.6399510000
 H       -1.0769190000       -2.8477370000        0.3964460000
 C       -1.9768840000        1.4452650000       -0.3477880000
 C       -3.3479160000        1.1887470000       -0.3773950000
 C       -3.8141150000       -0.0912510000       -0.0853020000
 C       -2.8936580000       -1.0815100000        0.2118960000
 H        4.1968600000        1.1396180000        0.0867190000
 H       -4.8790250000       -0.3341190000       -0.0985350000
 H       -3.1878760000       -2.1098040000        0.4358130000
 C        3.4629850000       -1.4322780000       -0.3650640000
 H        4.5066500000       -1.1025840000       -0.4301550000
 H        3.2142630000       -1.9481240000       -1.3057970000
 H        3.4040360000       -2.1653830000        0.4576270000
 H        2.6978870000        3.0963690000        0.4989820000
 H        0.2276190000        2.7613170000        0.4800760000
 H       -1.6047200000        2.4376740000       -0.6041670000
 H       -4.0468480000        1.9886060000       -0.6367180000

