%nproc=8
%mem=18000mb
#P PBE1PBE DEF2TZVPP OPT FREQ SCF(tight) INT(ultrafine)

 4-methyl-3c_2c_rd

 1 2
 C       -3.1198920000        1.0139330000       -0.0838330000
 C       -2.2643050000        2.1330320000       -0.1900150000
 C       -0.9058070000        1.9538370000       -0.1572740000
 C       -2.5964470000       -0.2489420000        0.0581050000
 N       -1.2296290000       -0.4138440000        0.0870570000
 C       -0.3490120000        0.6605510000       -0.0222350000
 C        1.0615670000        0.4378080000        0.0038660000
 N        1.5630170000       -0.8451150000       -0.1617210000
 C       -0.6374600000       -1.7183550000        0.3494720000
 C        0.6157080000       -1.8970340000       -0.4776020000
 H       -1.3512610000       -2.5077110000        0.0954970000
 H       -0.4013370000       -1.8061590000        1.4245530000
 H        0.3719560000       -1.8654590000       -1.5538440000
 H        1.0738350000       -2.8706860000       -0.2597460000
 C        2.0120650000        1.4748690000        0.1913570000
 C        3.3576860000        1.2119860000        0.2239350000
 C        3.8201670000       -0.1214040000        0.0696420000
 C        2.8989180000       -1.1095130000       -0.1204880000
 H       -4.2027460000        1.1343190000       -0.1118680000
 H        4.8810110000       -0.3692090000        0.1043480000
 H        3.1764210000       -2.1567110000       -0.2548760000
 C       -3.4786370000       -1.4465060000        0.1949910000
 H       -4.5275690000       -1.1294430000        0.1677760000
 H       -3.3141160000       -1.9757440000        1.1468560000
 H       -3.3299690000       -2.1670490000       -0.6256070000
 H       -2.6831760000        3.1338340000       -0.3094090000
 H       -0.2415680000        2.8088590000       -0.2710280000
 H        1.6592840000        2.4933880000        0.3463640000
 H        4.0682050000        2.0249110000        0.3840930000

