%nproc=8
%mem=18000mb
#P PBE1PBE DEF2TZVPP OPT FREQ SCF(tight) INT(ultrafine)

 14-dihydroxy-6-sulfonate-910-aq_a_rd

-2 2
 C        2.3368920000       -1.6154840000       -0.0206180000
 C        2.6360650000       -0.2379060000       -0.0179530000
 C        1.0226680000       -2.0375410000       -0.0141010000
 C       -0.0418850000       -1.1107240000       -0.0077840000
 C        0.2556270000        0.2671950000       -0.0103630000
 C        1.6058470000        0.6846430000       -0.0153200000
 H        3.1660280000       -2.3277420000       -0.0381670000
 H        0.7513290000       -3.0963900000       -0.0173210000
 H        1.8289030000        1.7530170000       -0.0217740000
 C       -1.4218920000       -1.6266760000       -0.0029170000
 C       -2.4895140000       -0.6261810000        0.0005640000
 C       -2.1913300000        0.7947730000       -0.0025650000
 C       -0.8091550000        1.2894500000       -0.0097310000
 C       -3.8576400000       -1.0392280000        0.0071480000
 C       -4.8783810000       -0.1051920000        0.0105610000
 C       -3.2787600000        1.7210740000        0.0013100000
 C       -4.5895870000        1.2747700000        0.0076760000
 O       -1.6270690000       -2.8554590000       -0.0021350000
 O       -0.5167840000        2.4957370000       -0.0145700000
 O       -4.1830240000       -2.3628300000        0.0103840000
 H       -5.1455680000       -2.3884610000        0.0154730000
 O       -3.0473810000        3.0627480000       -0.0009840000
 H       -3.9182070000        3.4735370000        0.0033580000
 S        4.3781040000        0.2592700000        0.0091890000
 O        4.8567730000       -0.1783750000        1.3418390000
 O        4.3821840000        1.7260290000       -0.1842670000
 O        4.9853950000       -0.5027180000       -1.1090530000
 H       -5.9205960000       -0.4491130000        0.0156580000
 H       -5.4060290000        2.0079440000        0.0105950000

