%nproc=8
%mem=18000mb
#P PBE1PBE DEF2TZVPP OPT FREQ SCF(tight) INT(ultrafine)

 i47di-1256-met-3_phenyl_n_rd

-1 2
 C        3.1577380000       -0.6806550000        0.0906480000
 C        2.2248510000       -1.7218550000        0.0791110000
 C        2.7720940000        0.7116620000        0.0267150000
 C        1.3290170000        0.9323030000       -0.0423900000
 C        0.3660240000       -0.1250710000       -0.0546760000
 C        0.7878360000       -1.5236940000        0.0045240000
 O        3.5979730000        1.6586810000        0.0365710000
 O       -0.0199660000       -2.4857500000       -0.0248560000
 C        0.6373480000        2.1358500000       -0.0810690000
 N       -0.7027420000        1.8499220000       -0.0946630000
 C       -0.9078000000        0.4706680000       -0.0692130000
 C        1.1821040000        3.5184420000       -0.1323480000
 H        2.2736130000        3.4238620000       -0.0362990000
 H        0.7934560000        4.1589430000        0.6792620000
 H        0.9587740000        4.0290420000       -1.0878460000
 C       -1.7031550000        2.8614400000       -0.3132130000
 H       -1.3124790000        3.6273960000       -0.9988220000
 H       -2.0052250000        3.3676460000        0.6205280000
 H       -2.5975010000        2.4147110000       -0.7644810000
 C        4.6298480000       -0.9601540000        0.1670590000
 H        4.9018450000       -1.5205930000        1.0798060000
 H        5.1682080000       -0.0017010000        0.1672870000
 H        4.9853330000       -1.5660250000       -0.6862110000
 C        2.6829360000       -3.1499130000        0.1368020000
 H        3.3506140000       -3.4062460000       -0.7055630000
 H        1.7998380000       -3.8030200000        0.1028940000
 H        3.2511830000       -3.3659590000        1.0596330000
 C       -2.2484780000       -0.1078270000       -0.0026470000
 C       -2.5639240000       -1.2968720000       -0.6938920000
 C       -3.2766730000        0.4843360000        0.7622280000
 C       -4.5622880000       -0.0519870000        0.7976530000
 C       -4.8614610000       -1.2111370000        0.0840890000
 C       -3.8456810000       -1.8319000000       -0.6486390000
 H       -1.7639770000       -1.8145940000       -1.2226160000
 H       -3.0551910000        1.3615950000        1.3738200000
 H       -5.3315210000        0.4332480000        1.4062570000
 H       -5.8684760000       -1.6367340000        0.1117500000
 H       -4.0553740000       -2.7562670000       -1.1949350000

