%nproc=8
%mem=18000mb
#P PBE1PBE DEF2TZVPP OPT FREQ SCF(tight) INT(ultrafine)

 i47di-1256-met-3_phenyl_n_ox

 1 2
 C       -3.1762200000       -0.7026780000        0.0804790000
 C       -2.2717610000       -1.7238530000        0.0932480000
 C       -2.7419280000        0.7183220000        0.0008080000
 C       -1.2832110000        0.9489300000       -0.0716110000
 C       -0.3609350000       -0.0761310000       -0.0974780000
 C       -0.7984890000       -1.4895020000        0.0216340000
 O       -3.5269850000        1.6454160000       -0.0039640000
 O       -0.0041550000       -2.4070510000        0.0589280000
 C       -0.5768270000        2.1826880000       -0.0811280000
 N        0.7548110000        1.8920370000       -0.0800420000
 C        0.9487770000        0.5193450000       -0.0865930000
 C       -1.1136760000        3.5537430000       -0.1130890000
 H       -2.1937900000        3.5231740000        0.0729600000
 H       -0.9584410000        4.0031170000       -1.1112910000
 H       -0.6145350000        4.2056750000        0.6200790000
 C        1.7823650000        2.9127290000       -0.2246430000
 H        2.0540760000        3.3459400000        0.7488550000
 H        1.4074920000        3.7113770000       -0.8761970000
 H        2.6724410000        2.4749250000       -0.6893100000
 C       -4.6471380000       -0.9417750000        0.1492540000
 H       -4.9822750000       -1.5743830000       -0.6882770000
 H       -5.1974260000        0.0061140000        0.1189050000
 H       -4.9148130000       -1.4766390000        1.0747880000
 C       -2.7015710000       -3.1507240000        0.1818470000
 H       -3.3473450000       -3.4186380000       -0.6699580000
 H       -3.2953300000       -3.3246460000        1.0934910000
 H       -1.8349090000       -3.8217040000        0.1926330000
 C        2.2415170000       -0.1060670000       -0.0300120000
 C        3.2839890000        0.4300210000        0.7708100000
 C        2.4876810000       -1.2910640000       -0.7693900000
 C        3.7359070000       -1.8907640000       -0.7301730000
 C        4.7477240000       -1.3544730000        0.0701550000
 C        4.5136860000       -0.1993110000        0.8295640000
 H        3.1021470000        1.3027880000        1.3992760000
 H        1.7020240000       -1.7136990000       -1.3923850000
 H        3.9232110000       -2.7881740000       -1.3229120000
 H        5.7252860000       -1.8409970000        0.1111330000
 H        5.2982780000        0.1979670000        1.4766940000

