%nproc=8
%mem=18000mb
#P PBE1PBE DEF2TZVPP OPT FREQ SCF(tight) INT(ultrafine)

 1-ethoxy-7a_n_rd

-1 2
 C        3.7852950000       -1.8221720000       -0.3132960000
 C        4.4135300000       -0.5832840000       -0.0467500000
 C        2.3990030000       -1.8989650000       -0.3609500000
 C        1.5812540000       -0.7713800000       -0.1541480000
 C        2.2215550000        0.4761100000        0.1672260000
 C        3.6152370000        0.5357180000        0.1945410000
 H        4.3817460000       -2.7225130000       -0.4876130000
 H        1.9133010000       -2.8592210000       -0.5745030000
 H        5.5031340000       -0.4958430000       -0.0387050000
 H        4.0813190000        1.4998710000        0.4279610000
 N        0.2106940000       -0.8671830000       -0.2545850000
 C       -0.6997280000        0.1710980000       -0.2563280000
 C       -0.2869970000        1.5325750000       -0.0401890000
 S        1.2645550000        1.8380950000        0.7548410000
 C       -2.0569520000       -0.0810240000       -0.5206710000
 C       -2.9835980000        0.9468320000       -0.6738060000
 C       -2.5491870000        2.2946400000       -0.5460460000
 C       -1.2229620000        2.5577480000       -0.2140250000
 H       -4.0176830000        0.6917320000       -0.9147340000
 H       -0.8892430000        3.5920450000       -0.0703250000
 H       -3.2472540000        3.1182920000       -0.7184930000
 H       -0.1651180000       -1.7478600000       -0.5815090000
 O       -2.4368410000       -1.4085260000       -0.6797810000
 C       -2.7287820000       -2.0848740000        0.5254640000
 C       -4.1149880000       -1.7795870000        1.0601110000
 H       -1.9647440000       -1.8441910000        1.2885090000
 H       -2.6410540000       -3.1622160000        0.2993600000
 H       -4.2137450000       -0.7054030000        1.2768100000
 H       -4.3047170000       -2.3435700000        1.9880400000
 H       -4.8850400000       -2.0527710000        0.3212850000

