%nproc=8
%mem=18000mb
#P PBE1PBE DEF2TZVPP OPT FREQ SCF(tight) INT(ultrafine)

 1-ethoxy-7a_n_ox

 1 2
 C        3.6618740000       -2.0885390000       -0.0260200000
 C        4.3850200000       -0.8891040000        0.0989870000
 C        2.2842380000       -2.0672650000       -0.1049270000
 C        1.5914060000       -0.8412800000       -0.0607540000
 C        2.3217870000        0.3671730000        0.0649540000
 C        3.7218450000        0.3253170000        0.1439140000
 H        4.1905350000       -3.0431240000       -0.0611790000
 H        1.7168940000       -2.9962540000       -0.2023840000
 H        5.4747380000       -0.9118980000        0.1609970000
 H        4.2832520000        1.2577700000        0.2407730000
 N        0.2269360000       -0.8361380000       -0.1397430000
 C       -0.6010190000        0.2431520000       -0.1145090000
 C       -0.1295680000        1.5702880000        0.0019980000
 S        1.5650630000        1.9307040000        0.1275340000
 C       -2.0030910000       -0.0121070000       -0.2164350000
 C       -2.8846940000        1.0575780000       -0.1979230000
 C       -2.3939490000        2.3676030000       -0.0832230000
 C       -1.0374200000        2.6350020000        0.0171790000
 H       -3.9593170000        0.8917330000       -0.2696210000
 H       -0.6765660000        3.6612820000        0.1074140000
 H       -3.1038090000        3.1973160000       -0.0712190000
 H       -0.2582400000       -1.7293960000       -0.2305180000
 O       -2.3039560000       -1.3064410000       -0.3352730000
 C       -3.6663580000       -1.7483650000       -0.4250960000
 C       -4.3348220000       -1.8335600000        0.9264940000
 H       -3.5958880000       -2.7388450000       -0.8940390000
 H       -4.2094070000       -1.0926950000       -1.1250210000
 H       -3.7808460000       -2.5081920000        1.5949800000
 H       -5.3509430000       -2.2370820000        0.8051500000
 H       -4.4198000000       -0.8527480000        1.4166700000

