%nproc=8
%mem=18000mb
#P PBE1PBE DEF2TZVPP OPT FREQ SCF(tight) INT(ultrafine)

 dimethylsulfide_n_rd

-1 2
 S       -0.6030030000        0.7538700000        0.0049950000
 C        2.3288610000       -0.2648480000       -0.0129350000
 C       -1.1690380000       -0.9685430000       -0.0006360000
 H        2.6693730000        0.6970960000        0.3436420000
 H        1.9142920000       -0.9530680000        0.7095090000
 H       -1.3152330000       -1.3617630000        1.0136710000
 H       -2.1242270000       -1.0793560000       -0.5294580000
 H       -0.4480190000       -1.6286420000       -0.4991260000
 H        1.9929340000       -0.3358340000       -1.0367280000

