%nproc=8
%mem=18000mb
#P PBE1PBE DEF2TZVPP OPT FREQ SCF(tight) INT(ultrafine)

 3z_2c_rd

 1 2
 C        0.8746920000        5.6404260000        0.0000000000
 C       -0.3183880000        4.9828900000        0.0000000000
 C       -0.3815370000        3.5542730000        0.0000000000
 N        0.8314320000        2.8577670000        0.0000000000
 C        2.0880690000        4.8918330000        0.0000000000
 C        2.0324150000        3.5347430000        0.0000000000
 C       -1.5631760000        2.8374860000        0.0000000000
 C       -1.6007710000        1.4247380000        0.0000000000
 C       -0.3262470000        0.7368640000        0.0000000000
 C        0.8239850000        1.4791730000        0.0000000000
 C       -2.7987780000        0.6943030000        0.0000000000
 C       -2.7987890000       -0.6942770000        0.0000000000
 C       -1.6007870000       -1.4247420000        0.0000000000
 C       -0.3262450000       -0.7368770000        0.0000000000
 C       -1.5631830000       -2.8374910000        0.0000000000
 C        0.8239970000       -1.4791680000        0.0000000000
 N        0.8314520000       -2.8577640000        0.0000000000
 C       -0.3815180000       -3.5542520000        0.0000000000
 C       -0.3183880000       -4.9828730000        0.0000000000
 C        0.8746820000       -5.6404320000        0.0000000000
 C        2.0324150000       -3.5347590000        0.0000000000
 C        2.0880520000       -4.8918610000        0.0000000000
 H        0.9058260000        6.7315990000        0.0000000000
 H       -1.2658200000        5.5239050000        0.0000000000
 H        3.0600030000        5.3857800000        0.0000000000
 H        2.9226170000        2.9048350000        0.0000000000
 H       -3.7449680000        1.2390220000        0.0000000000
 H       -3.7449920000       -1.2389750000        0.0000000000
 H       -2.4975010000        3.4007720000        0.0000000000
 H        1.8182870000        1.0346350000        0.0000000000
 H        1.8182920000       -1.0346190000        0.0000000000
 H       -2.4975000000       -3.4007930000        0.0000000000
 H       -1.2658310000       -5.5238690000        0.0000000000
 H        0.9057890000       -6.7316060000        0.0000000000
 H        2.9226340000       -2.9048750000        0.0000000000
 H        3.0599820000       -5.3858150000        0.0000000000

