22
energy:      -571.1405970190
N          0.00000        1.36550       -1.52973
C         -0.00000        2.71787       -1.56790
C          0.00000        0.69507       -0.35154
C         -0.00000        3.46005       -0.38626
C          0.00000        2.79697        0.84410
C          0.00000        1.40635        0.86886
C         -0.00000       -0.69507       -0.35154
C         -0.00000       -1.40635        0.86886
C         -0.00000        0.69553        2.07765
C          0.00000       -0.69553        2.07765
N         -0.00000       -1.36550       -1.52973
C          0.00000       -2.71787       -1.56790
C          0.00000       -3.46005       -0.38626
C         -0.00000       -2.79697        0.84410
H         -0.00000        3.20621       -2.52230
H         -0.00000        4.54142       -0.42460
H         -0.00000        3.36613        1.76904
H          0.00000        1.22840        3.02310
H         -0.00000       -1.22840        3.02310
H          0.00000       -4.54142       -0.42460
H          0.00000       -3.36613        1.76904
H          0.00000       -3.20621       -2.52230
