32
energy:      -688.6371568960
N         -2.75786        0.52649        0.32392
C         -2.12606       -0.61038        0.92557
C         -0.80847       -0.77249        0.86309
C         -1.99956        1.52520       -0.36956
C         -0.67462        1.41042       -0.48078
C          0.01012        0.23841        0.14153
C          1.49691        0.08818        0.05643
C          2.11242       -1.24654       -0.18502
C          3.43855       -1.35228       -0.24738
N          4.26785       -0.19823       -0.08998
C          2.38887        1.27079        0.21210
C          3.70786        1.10111        0.13218
H         -2.72206       -1.35113        1.45401
H         -0.33368       -1.63064        1.32981
H         -2.49723        2.37105       -0.82689
H         -0.10000        2.15954       -1.01757
H          1.48474       -2.12991       -0.30033
H          3.88716       -2.32913       -0.41879
H          4.35828        1.96468        0.23463
H          1.96843        2.25908        0.38130
C          5.69777       -0.33902       -0.20418
H          6.01819       -1.33446        0.16956
H          6.21406        0.43685        0.40181
H          5.98088       -0.23363       -1.26998
C         -4.20111        0.65727        0.39828
C         -4.85729       -0.25122       -0.64089
H         -4.50941        1.70194        0.21144
H         -4.53660        0.37987        1.42254
O         -4.46410       -1.58036       -0.42936
H         -4.55264        0.07952       -1.65989
H         -5.95975       -0.15300       -0.53315
H         -5.01312       -2.14450       -1.02826
