33
energy:      -726.7096507620
N          2.41817        0.60926        0.40385
C          1.78726       -0.45949        1.09169
C          0.47314       -0.64667        1.01753
C          1.66908        1.54517       -0.36946
C          0.34927        1.42045       -0.49416
C         -0.33111        0.29795        0.19932
C         -1.80897        0.11053        0.07519
C         -2.38743       -1.24101       -0.08578
C         -3.70452       -1.38118       -0.19198
N         -4.55571       -0.23943       -0.14084
C         -2.71315        1.27164        0.11368
C         -4.03622        1.07332        0.00788
H          2.39251       -1.14632        1.67415
H         -0.00272       -1.46250        1.52553
H          2.17962        2.35443       -0.87787
H         -0.22427        2.11694       -1.08921
H         -1.72948       -2.11025       -0.11834
H         -4.13531       -2.36963       -0.30670
H         -4.70861        1.92385        0.02410
H         -2.31766        2.27267        0.23331
C         -5.97326       -0.42278       -0.29000
H         -6.28895       -1.39470        0.14745
H         -6.22989       -0.41749       -1.36715
H         -6.52784        0.38951        0.23204
C          3.85748        0.69696        0.42060
C          4.47139       -0.48678       -0.27778
H          4.22247        0.73417        1.46974
H          4.18937        1.62856       -0.08370
C          5.91765       -0.44538       -0.61285
H          6.06203        0.28919       -1.43176
H          6.28296       -1.43883       -0.94075
H          6.48599       -0.09933        0.27174
O          3.80055       -1.46792       -0.57954
