32
energy:      -651.5046992210
N         -2.76279        0.42365       -0.24318
C         -1.93977        1.57481       -0.46849
C         -0.60970        1.49032       -0.42169
C         -2.17679       -0.85559        0.03817
C         -0.85323       -0.99808        0.12573
C          0.02103        0.18507       -0.10662
C          1.51516        0.05308       -0.04472
C          2.33951        1.11462        0.59915
C          3.65673        0.96516        0.64139
N          4.28840       -0.18790        0.08847
C          2.19749       -1.14549       -0.60776
C          3.52528       -1.23001       -0.52630
H         -2.39153        2.52770       -0.71520
H          0.00703        2.36204       -0.62113
H         -2.81037       -1.71601        0.20430
H         -0.41828       -1.96378        0.35695
H          1.86222        1.99618        1.01588
H          4.26254        1.74304        1.10877
H          4.02551       -2.10863       -0.92291
H          1.62096       -1.93749       -1.07405
C          5.71869       -0.33267        0.19564
H          6.20700        0.66435        0.16386
H          6.10955       -0.93290       -0.65378
H          5.95375       -0.83314        1.15557
C         -4.20029        0.54774       -0.39716
C         -4.94360       -0.17160        0.69845
H         -4.49494        1.61976       -0.37024
H         -4.48059        0.14418       -1.39209
C         -5.79513       -1.16757        0.41781
H         -4.78078        0.11587        1.73184
H         -5.97333       -1.48393       -0.60760
H         -6.32143       -1.67735        1.21708
