29
energy:      -666.3124979270
N         -2.87394        0.47924        0.10666
C         -2.28263       -0.77502       -0.22754
C         -0.97336       -0.93240       -0.26924
C         -2.03803        1.58949        0.40917
C         -0.72713        1.49813        0.39641
C         -0.11249        0.20661        0.04615
C          1.39524        0.06404        0.01818
C          2.03761       -1.14962        0.54230
C          3.35340       -1.25136        0.49385
N          4.15649       -0.21433       -0.04942
C          2.23967        1.12580       -0.54516
C          3.55046        0.96442       -0.55857
H         -2.92828       -1.58037       -0.45294
H         -0.52820       -1.86804       -0.52546
H         -2.54050        2.49516        0.65588
H         -0.10276        2.33014        0.62897
H          1.42846       -1.92463        0.95264
H          3.86588       -2.10537        0.86002
H          4.20411        1.70099       -0.95375
H          1.77762        2.00788       -0.93037
C          5.57810       -0.34415       -0.05570
H          5.86953       -1.41015       -0.15592
H          5.99583        0.05781        0.89032
H          6.01497        0.21302       -0.90996
C         -4.28916        0.66560        0.14722
C         -5.06190       -0.55306       -0.13618
H         -4.59296        1.44391       -0.58574
H         -4.59655        1.03822        1.14909
N         -5.59087       -1.55483       -0.36856
