27
energy:     -1029.5485509400
C         -3.63566        1.71003        0.32581
C         -4.16234        0.42875        0.48344
C         -2.29769        1.87572       -0.02984
C         -1.46499        0.75935       -0.21842
C         -2.00211       -0.53304       -0.06923
C         -3.35008       -0.68686        0.27836
H         -4.26310        2.57790        0.48571
H         -1.89768        2.87696       -0.13273
H         -5.19935        0.30136        0.76171
H         -3.77147       -1.67987        0.39044
N         -0.08950        0.97935       -0.49864
C          0.91744        0.00903       -0.21815
C          0.60552       -1.35992       -0.07421
S         -1.03667       -2.01335       -0.36474
C          2.24535        0.44216       -0.02483
C          3.24006       -0.49056        0.32890
C          2.91911       -1.83803        0.47682
C          1.61181       -2.27130        0.26905
H          4.26408       -0.18080        0.49877
H          1.37821       -3.32298        0.37636
H          0.20528        1.95330       -0.65733
H          3.68619       -2.55001        0.75095
O          2.52609        1.76843       -0.15386
C          3.75453        2.35809        0.04713
H          3.66139        3.44966       -0.12661
H          4.50027        1.94882       -0.66773
H          4.09112        2.19561        1.09366
