34
energy:      -727.6926204770
C          3.10243        1.04177        0.07475
C          2.86675       -0.33017        0.16035
C          2.05587        1.90589       -0.20767
C          1.54128       -0.81567        0.04118
N          0.77249        1.44951       -0.28259
C          0.47429        0.11679       -0.05727
C          1.26640       -2.19523       -0.01758
C         -0.03539       -2.65200       -0.20742
C         -1.10934       -1.75736       -0.18995
C         -0.87749       -0.37435       -0.02180
C         -2.42137       -2.23035       -0.28528
C         -3.48718       -1.35553       -0.12036
C         -3.23837       -0.03164        0.21571
N         -1.95896        0.44539        0.27552
H          4.10758        1.43906        0.13615
H          2.27840        2.94854       -0.40179
H          2.06174       -2.92713        0.02314
H         -0.21228       -3.71748       -0.30170
C         -1.75295        1.74273        0.94557
C         -1.28282        2.84154        0.04451
H         -0.99329        1.58007        1.74856
H         -2.65585        2.09592        1.48778
C         -0.22786        2.34539       -0.89472
H         -0.88767        3.66152        0.68274
H         -2.12517        3.23743       -0.56350
H          0.23110        3.22242       -1.40065
H         -0.71505        1.77452       -1.72136
H         -4.50614       -1.71598       -0.16789
H         -4.07346        0.61041        0.46550
H         -2.62103       -3.28173       -0.45764
C          4.03763       -1.25878        0.35112
H          4.98727       -0.69810        0.48343
H          4.14303       -1.91513       -0.53698
H          3.88039       -1.87894        1.25924
