25
energy:      -609.7489928320
N          3.54466       -0.00095        0.00364
C          2.90268        1.21695       -0.20701
C          1.58696        1.25411       -0.21883
C          2.90064       -1.21820        0.21175
C          1.58484       -1.25407        0.21812
C          0.82483        0.00038       -0.00196
C         -0.67304        0.00103       -0.00420
C         -1.43627        1.24756        0.21137
C         -2.76716        1.21602        0.19786
N         -3.46954        0.00076       -0.00338
C         -1.43623       -1.24417       -0.22763
C         -2.76713       -1.21235       -0.21650
H          3.50305        2.08855       -0.35922
H          1.07165        2.16638       -0.38379
H          3.49952       -2.09042        0.36624
H          1.06784       -2.16586        0.38073
H         -0.91967        2.16430        0.38092
H         -3.33152        2.09905        0.34934
H         -3.33178       -2.09460       -0.37111
H         -0.91954       -2.16096       -0.39641
C         -4.90743       -0.00132        0.00831
H         -5.29217        0.97062       -0.31846
H         -5.24287       -0.19614        1.06037
H         -5.29116       -0.79325       -0.64419
O          4.89615       -0.00157        0.00661
