41
energy:     -1204.8549950500
C          0.24984        3.33202       -1.14828
C          1.38223        3.83989       -0.51702
C         -0.06690        1.98468       -1.03698
C          0.75168        1.13494       -0.27247
C          1.87784        1.64333        0.34575
C          2.20380        2.98794        0.22176
H         -0.38968        3.97631       -1.72565
H         -0.92879        1.60836       -1.55453
H          1.62312        4.89106       -0.59752
H          3.08467        3.37653        0.71324
N          0.44529       -0.25546       -0.20253
C          1.54232       -1.17053       -0.21976
C          2.73157       -0.86183        0.41096
S          2.88688        0.61328        1.40430
C          1.43906       -2.36251       -0.96359
C          2.51312       -3.24453       -1.01079
C          3.69872       -2.93806       -0.34993
C          3.81124       -1.73454        0.34588
H          0.55227       -2.60203       -1.52180
H          2.41594       -4.16233       -1.56393
H          4.73405       -1.48579        0.85194
H          4.53161       -3.62702       -0.38136
C         -0.89333       -0.72801       -0.41973
C         -1.88453       -0.16418        0.59791
H         -0.93260       -1.82014       -0.29944
H         -1.19513       -0.50062       -1.45700
N         -3.22343       -0.68131        0.31572
C         -3.89888       -0.02342       -0.80089
C         -5.34743       -0.46354       -0.66139
H         -3.45400       -0.30331       -1.77406
H         -3.83797        1.08917       -0.70461
H         -1.86847        0.94438        0.61767
H         -1.57363       -0.52063        1.59714
C         -5.50719       -0.78676        0.82889
H         -5.51990       -1.38434       -1.26784
H         -6.05074        0.30537       -1.01904
C         -4.14491       -0.48262        1.42593
H         -5.73399       -1.87225        0.95672
H         -6.31478       -0.21838        1.31745
H         -3.87781       -1.13463        2.28110
H         -4.12290        0.57590        1.78430
