28
energy:     -1067.6390811100
C          3.39532       -0.06679        1.21275
C          3.49837       -1.34451        0.66007
C          2.24748        0.69753        0.99340
C          1.18740        0.18277        0.22100
C          1.27756       -1.12111       -0.28945
C          2.44154       -1.87304       -0.08762
H          4.20205        0.33123        1.81502
H          2.17105        1.67858        1.44613
H          4.39293       -1.93186        0.81911
H          2.52569       -2.86464       -0.51243
N         -0.00288        0.94325        0.02116
C         -1.24207        0.26668        0.19975
C         -1.39283       -1.03803       -0.30657
S         -0.06896       -1.80839       -1.25881
C         -2.30410        0.86228        0.90438
C         -3.49753        0.16272        1.09294
C         -3.64829       -1.12391        0.58230
C         -2.59454       -1.72351       -0.13210
H         -2.19424        1.85242        1.32886
H         -4.30841        0.61972        1.64675
H         -2.71806       -2.71778       -0.53947
H         -4.57507       -1.66085        0.70826
C          0.03519        2.23215       -0.46337
C          1.32691        2.84227       -0.95458
H          1.87043        3.35146       -0.13790
H          1.11026        3.56829       -1.76697
H          1.96787        2.06416       -1.42660
O         -1.00430        2.82959       -0.69967
