35
energy:     -1259.2134122000
C         -1.25183        2.53257        1.76520
C         -0.62194        3.54594        1.04681
C         -0.94912        1.19670        1.49907
C          0.00215        0.86361        0.51041
C          0.65450        1.88831       -0.18535
C          0.32750        3.22725        0.06951
H         -1.96860        2.77771        2.54164
H         -1.42810        0.42125        2.08535
H         -0.86408        4.58224        1.25025
H          0.81044        4.01934       -0.48663
N          0.36014       -0.50680        0.29286
C          1.76183       -0.79460        0.18286
C          2.57518        0.08065       -0.57281
S          1.86543        1.48625       -1.44437
C          2.35122       -1.90360        0.82124
C          3.72096       -2.13972        0.69372
C          4.51272       -1.28536       -0.07662
C          3.93944       -0.18072       -0.70779
H          1.76965       -2.57089        1.44242
H          4.17099       -2.98815        1.19193
H          4.55665        0.47333       -1.31149
H          5.56947       -1.47828       -0.18390
C         -0.60256       -1.49034        0.25289
C         -2.01970       -1.16457       -0.08783
C         -3.07782       -1.90744        0.45524
C         -2.30570       -0.15742       -1.03758
C         -3.62055        0.10756       -1.41766
C         -4.66810       -0.61571       -0.84876
C         -4.39749       -1.62032        0.08800
H         -5.21253       -2.18205        0.52315
H         -2.87969       -2.69227        1.17254
H         -1.50988        0.39849       -1.51747
H         -3.82406        0.86943       -2.15907
H         -5.68745       -0.40649       -1.14126
O         -0.29541       -2.67194        0.32160
