26
energy:      -954.3693872230
C         -3.56688        0.69324       -0.61835
C         -3.65208       -0.69577       -0.61422
C         -2.37803        1.32366       -0.24524
C         -1.24175        0.56642        0.13133
C         -1.34677       -0.84293        0.13060
C         -2.55011       -1.46069       -0.23668
H         -4.42086        1.28631       -0.91623
H         -2.34712        2.40298       -0.28105
H         -4.57556       -1.18145       -0.90092
H         -2.63168       -2.53943       -0.22254
N         -0.00170        1.22013        0.46111
C          1.23924        0.56598        0.13172
C          1.34631       -0.84248        0.12982
S         -0.00038       -1.88803        0.66680
C          2.37633        1.32409       -0.24618
C          3.56301        0.69369       -0.61976
C          3.65184       -0.69730       -0.61468
C          2.54713       -1.46084       -0.23719
H          2.34506        2.40224       -0.28223
H          4.41908        1.28608       -0.91664
H          2.62999       -2.54068       -0.22316
H          4.57369       -1.18175       -0.90175
C         -0.00056        2.64809        0.75232
H         -0.87651        2.91576        1.38166
H         -0.00046        3.24054       -0.18665
H          0.87520        2.91522        1.38207
