40
energy:     -1650.2452233200
N         -3.44414       -0.91486        0.21089
C         -2.77309       -1.43907       -0.93830
C         -1.47162       -1.21917       -1.14082
C         -0.71423       -0.40578       -0.15394
C         -2.73110       -0.13923        1.20385
C         -1.42418        0.11883        1.04124
C          0.75178       -0.13739       -0.34196
C          1.66215       -1.20933       -0.82029
C          2.95070       -0.93845       -0.99683
N          3.47999        0.36906       -0.72797
C          2.61825        1.44080       -0.28076
C          1.30913        1.21935       -0.09106
H         -3.31447       -2.04055       -1.66259
H         -0.97474       -1.63179       -2.01290
H         -0.87297        0.70803        1.77018
H          1.28077       -2.20537       -1.02334
H          3.60876       -1.72811       -1.34264
H          0.64482        2.01638        0.23755
C         -4.87083       -1.17817        0.33852
C         -5.66129       -0.38485       -0.70503
H         -5.04754       -2.26892        0.21875
H         -5.26371       -0.90626        1.33429
Cl        -5.40985        1.37331       -0.51242
H         -6.74120       -0.59759       -0.57274
H         -5.36140       -0.67034       -1.73338
C          4.91019        0.56759       -0.89068
C          5.66561        0.28205        0.41190
H          5.12646        1.59559       -1.24058
H          5.29173       -0.10013       -1.69196
Cl         5.44488       -1.40081        0.96500
H          6.74809        0.44360        0.23298
H          5.33498        0.96422        1.22137
C          3.16265        2.82438       -0.03534
H          3.54937        3.23151       -0.99195
H          3.97739        2.78256        0.71371
H          2.38426        3.52134        0.34281
C         -3.42636        0.41084        2.42112
H         -4.26450        1.06462        2.10558
H         -2.74617        1.01627        3.05679
H         -3.80845       -0.43360        3.02899
