32
energy:      -726.3141620940
N         -3.52434       -0.35075       -0.18663
C         -2.85201        0.80041        0.26701
C         -2.80432       -1.49735       -0.57286
C         -1.52185        0.83110        0.35435
C         -0.74264       -0.35020       -0.04008
C         -1.47376       -1.53116       -0.51645
C          0.74255       -0.35010        0.04033
C          1.52157        0.83124       -0.35477
C          2.85078        0.80037       -0.26702
N          3.52918       -0.35193        0.19314
C          2.80289       -1.49831        0.57353
C          1.47306       -1.53120        0.51588
H          3.36388       -2.33152        0.91347
H          0.92122       -2.39497        0.80915
H          1.00150        1.69234       -0.70639
H          3.43191        1.63527       -0.54549
H         -3.36417       -2.33169       -0.91330
H         -0.92121       -2.39475       -0.80946
H         -3.43155        1.63495        0.54615
H         -1.00152        1.69228        0.70620
C         -4.97516       -0.40879       -0.28584
C         -5.66925        0.82722        0.10432
H         -5.33404       -1.24429        0.35265
H         -5.23347       -0.62123       -1.33409
C         -6.20733        1.84146        0.46539
H         -6.77067        2.68979        0.75459
C          4.97321       -0.40346        0.29360
C          5.67562        0.81427       -0.13299
H          5.31963       -1.23448       -0.34018
H          5.23153       -0.61710        1.34946
C          6.27053        1.81240       -0.43510
H          6.73327        2.70917       -0.75921
