42
energy:      -881.6804859900
N          3.52150       -0.24294        0.53691
C          2.86338       -1.39534       -0.01612
C          1.55138       -1.41168       -0.23152
C          0.74413       -0.20941        0.10690
C          2.76391        0.94920        0.87197
C          1.43712        0.98405        0.67112
C         -0.74506       -0.20863       -0.11015
C         -1.55334       -1.41028        0.23058
C         -2.86368       -1.39282        0.01446
N         -3.51668       -0.24042       -0.53961
C         -2.76393        0.95125       -0.87461
C         -1.43799        0.98346       -0.67470
H          3.44199       -2.28187       -0.26154
H          1.07763       -2.29544       -0.64675
H          0.85702        1.87003        0.91285
H         -1.07880       -2.29458        0.64597
H         -3.44321       -2.27955        0.26238
H         -0.85791        1.87115       -0.91441
C          4.96084       -0.29743        0.70040
C          5.65957       -0.03064       -0.63366
H          5.32216        0.44780        1.43650
H          5.24978       -1.28960        1.10869
O          5.25802       -0.96979       -1.59155
H          6.75617       -0.10133       -0.47145
H          5.39630        0.99556       -0.97950
C         -4.96105       -0.29517       -0.70231
C         -5.66087       -0.02967        0.63314
H         -5.25130       -1.28845       -1.11106
H         -5.32441        0.44950       -1.43648
O         -5.25851       -0.96996        1.58978
H         -5.39698        0.99548        0.97900
H         -6.75747       -0.10028        0.47155
C          3.44545        2.17650        1.42334
H          4.22838        2.51520        0.71574
H          3.89878        1.93636        2.40745
H          2.73699        3.02041        1.57405
C         -3.44615        2.17770       -1.42518
H         -4.22812        2.51602       -0.71668
H         -3.89989        1.93766       -2.40980
H         -2.73777        3.02080       -1.57477
H          5.80662       -0.79718       -2.39884
H         -5.80590       -0.79713        2.39751
