38
energy:      -763.3871251480
N         -3.54323       -0.56062       -0.07292
C         -2.91360        0.26926       -1.06464
C         -2.76574       -1.33819        0.84467
C         -1.58749        0.33936       -1.15643
C         -0.75107       -0.44414       -0.20240
C         -1.43395       -1.29994        0.81530
C          0.74977       -0.38190       -0.27773
C          1.44577        0.90598       -0.56631
C          2.77524        0.92570       -0.64846
N          3.54080       -0.27561       -0.46671
C          2.90087       -1.53131       -0.20699
C          1.57358       -1.61689       -0.10926
H          3.49395       -2.43154       -0.06497
H          1.09640       -2.56948        0.10127
H          0.87860        1.82299       -0.70587
H          3.27544        1.86364       -0.86221
H         -3.25980       -1.95251        1.59179
H         -0.85179       -1.87934        1.52617
H         -3.51958        0.84666       -1.75990
H         -1.12385        0.96870       -1.91041
C         -4.98509       -0.56252        0.02558
C         -5.46051        0.67045        0.80034
H         -5.32594       -1.45911        0.59022
H         -5.44050       -0.62354       -0.99000
N         -5.06360        1.90522        0.12752
H         -4.99429        0.63714        1.80887
H         -6.56486        0.64102        0.92625
C          4.98639       -0.21071       -0.50775
C          5.51672        0.32589        0.82947
H          5.31593        0.41365       -1.36725
H          5.41258       -1.22146       -0.65100
N          5.01550        1.66449        1.10773
H          5.17439       -0.37288        1.62789
H          6.63021        0.32115        0.82501
H         -5.77421        2.14283       -0.60411
H         -5.02087        2.68697        0.82020
H          5.02357        1.84206        2.13805
H          5.63091        2.36668        0.63554
