40
energy:      -731.3147860480
N          3.54030        0.15845        0.08220
C          2.84276       -0.99373       -0.35069
C          1.50881       -1.03677       -0.40190
C          2.82271        1.32349        0.48635
C          1.49391        1.36003        0.47173
C          0.74779        0.16330        0.01757
C         -0.74779        0.16330       -0.01756
C         -1.50881       -1.03676        0.40191
C         -1.49391        1.36004       -0.47173
C         -2.82271        1.32349       -0.48636
C         -2.84276       -0.99373        0.35068
N         -3.54030        0.15845       -0.08220
H         -0.98433       -1.90910        0.72977
H         -3.41354       -1.86195        0.64906
H          3.41354       -1.86195       -0.64906
H          0.98433       -1.90910       -0.72976
H          3.37639        2.18783        0.81072
H          0.95014        2.23526        0.77616
H         -3.37639        2.18782       -0.81072
H         -0.95014        2.23526       -0.77615
C          4.98550        0.18102        0.12343
C          5.51954       -0.87697        1.10060
H          5.29081       -1.90769        0.75760
H          5.07151       -0.73090        2.10580
C         -4.98550        0.18102       -0.12343
C         -5.51954       -0.87697       -1.10060
H         -5.29081       -1.90769       -0.75760
H         -5.07151       -0.73090       -2.10580
C          5.57253       -0.00744       -1.28320
H          5.32181        1.17164        0.49228
H          5.34292       -1.01275       -1.69431
H          6.67006        0.10597       -1.24549
H          5.16351        0.75906       -1.97447
C         -5.57253       -0.00744        1.28321
H         -5.32181        1.17164       -0.49228
H         -5.34292       -1.01275        1.69431
H         -6.67006        0.10597        1.24549
H         -5.16351        0.75906        1.97447
H          6.61585       -0.78030        1.18895
H         -6.61585       -0.78030       -1.18895
