36
energy:      -837.0376692410
N          3.54049        0.03214       -0.07897
C          2.81710       -1.12400        0.38647
C          1.49914       -1.13917        0.42586
C          0.74426        0.04740       -0.01172
C          2.83517        1.19404       -0.50385
C          1.49585        1.23120       -0.48546
C         -0.74377        0.04712        0.01158
C         -1.49366       -1.14009       -0.42604
C         -2.81300       -1.12469       -0.39332
N         -3.52802        0.03131        0.07284
C         -2.83171        1.19365        0.50291
C         -1.49531        1.23322        0.48657
H          3.35131       -1.99286        0.70324
H          0.97009       -2.02088        0.77280
H          0.93540        2.10396       -0.80656
H         -0.96980       -2.02146       -0.77285
H         -3.34739       -1.99277       -0.70381
H         -0.93554        2.10387        0.80681
C          3.60262        2.38660       -0.97586
H          4.22155        2.08666       -1.84505
H          4.27774        2.72864       -0.16431
H          2.92140        3.19600       -1.26211
C         -3.60347        2.38602        0.97570
H         -4.22177        2.08646        1.84520
H         -4.27800        2.72860        0.16418
H         -2.92174        3.19575        1.26208
C          5.00213        0.02749       -0.11713
C          5.57037       -1.24625        0.32181
H          5.36404        0.84214        0.53287
H          5.32964        0.20313       -1.16311
N          5.99374       -2.24053        0.72478
C         -4.98652        0.02407        0.10723
C         -5.58872       -1.22942       -0.35037
H         -5.37929        0.84443       -0.52370
H         -5.33718        0.21922        1.13761
N         -6.01041       -2.23961       -0.71752
