36
energy:      -911.3762206220
N         -3.47200       -0.00272        0.76423
C         -2.86570       -1.18278        0.21343
C         -1.56991       -1.21018       -0.08726
C         -2.67956        1.15905        1.07331
C         -1.37709        1.19254        0.80065
C         -0.73234       -0.00236        0.17504
C          0.72634       -0.00150       -0.17287
C          1.56229       -1.21109        0.08664
C          1.37020        1.18932       -0.80357
C          2.67548        1.15699       -1.07094
C          2.85898       -1.18291       -0.21006
N          3.46108       -0.00394       -0.76423
H          3.14086        2.03381       -1.51288
H          0.78750        2.08043       -1.02530
H          1.11977       -2.10226        0.52390
H          3.46779       -2.06174       -0.01060
H         -0.79262        2.08133        1.02386
H         -3.14628        2.03497        1.50870
H         -3.47710       -2.06074        0.01139
H         -1.12614       -2.10041       -0.52300
C         -4.90267        0.04974        0.95705
C         -5.62871       -0.01213       -0.36840
H         -5.18188        1.01242        1.43650
H         -5.23193       -0.77112        1.63045
O         -5.01476       -0.23049       -1.40488
N         -6.95673        0.20671       -0.41657
C          4.89887        0.04607       -0.95688
C          5.62404       -0.01119        0.37132
H          5.17663        1.00983       -1.43577
H          5.22649       -0.77376       -1.62701
N          6.95172        0.21193        0.41791
O          5.01144       -0.22955        1.40778
H         -7.47947        0.43066        0.44240
H         -7.45284        0.18706       -1.31955
H          7.47428        0.43625       -0.44282
H          7.44925        0.19507        1.31908
