36
energy:      -803.0815061610
N          3.53991        0.15996       -0.31490
C          2.89079       -1.04222       -0.75003
C          2.78542        1.29962        0.11539
C          1.56116       -1.13514       -0.75524
C          0.75040        0.02966       -0.29163
C          1.45291        1.27070        0.13865
C         -0.75039       -0.02967       -0.29164
C         -1.45292       -1.27069        0.13862
C         -2.78534       -1.29956        0.11531
N         -3.53985       -0.15989       -0.31493
C         -2.89082        1.04221       -0.75008
C         -1.56112        1.13519       -0.75526
H         -3.48183        1.88939       -1.08588
H         -1.07670        2.04767       -1.09173
H         -0.89239       -2.14180        0.46170
H         -3.29755       -2.20909        0.42069
H          3.29757        2.20911        0.42072
H          0.89240        2.14181        0.46171
H          3.48184       -1.88946       -1.08585
H          1.07669       -2.04770       -1.09175
C          4.97764        0.23972       -0.35760
C          5.58411       -0.21405        0.96121
H          5.29595        1.28498       -0.57156
H          5.37016       -0.39511       -1.18611
O          6.97487       -0.11646        0.85714
H          5.28752       -1.27426        1.15985
H          5.21254        0.43544        1.78141
C         -4.97768       -0.23972       -0.35765
C         -5.58407        0.21404        0.96126
H         -5.29591       -1.28492       -0.57157
H         -5.37014        0.39514       -1.18609
O         -6.97489        0.11643        0.85712
H         -5.28753        1.27425        1.15986
H         -5.21254       -0.43543        1.78134
H          7.34383       -0.41476        1.72763
H         -7.34381        0.41473        1.72762
