30
energy:      -758.4515689260
N         -3.47586        0.54953        0.11104
C         -2.96608       -0.71079       -0.31703
C         -1.66227       -0.94277       -0.32975
C         -2.61794        1.57268        0.53661
C         -1.29641        1.40744        0.55832
C         -0.73762        0.11395        0.11461
C          0.73762       -0.11395        0.11459
C          1.29643       -1.40744        0.55830
C          1.66226        0.94276       -0.32981
C          2.96607        0.71078       -0.31713
C          2.61795       -1.57268        0.53655
N          3.47585       -0.54953        0.11094
H          3.63496        1.48715       -0.64313
H          1.26904        1.89459       -0.66042
H          0.63749       -2.19166        0.88833
H          3.04845       -2.52005        0.85915
H         -0.63746        2.19167        0.88832
H         -3.04842        2.52006        0.85922
H         -3.63498       -1.48717       -0.64300
H         -1.26906       -1.89460       -0.66036
C         -4.89151        0.82112        0.11338
C          4.89150       -0.82111        0.11324
C         -5.71440       -0.33566       -0.28915
H         -5.12927        1.66757       -0.55383
H         -5.21981        1.13042        1.13405
N         -6.32107       -1.27192       -0.60058
C          5.71441        0.33566       -0.28926
H          5.21984       -1.13045        1.13389
H          5.12925       -1.66756       -0.55400
N          6.32106        1.27193       -0.60069
