48
energy:     -1035.9097296500
N         -3.35597        1.11315       -0.32986
C         -2.32417        2.00286       -0.74534
C         -1.04528        1.61334       -0.76239
C         -3.06286       -0.21825        0.08880
C         -1.80635       -0.66236        0.10457
C         -0.71162        0.23770       -0.32776
C          0.71162       -0.23768       -0.32777
C          1.80635        0.66235        0.10462
C          1.04529       -1.61330       -0.76249
C          2.32417       -2.00281       -0.74546
C          3.06286        0.21824        0.08881
N          3.35597       -1.11312       -0.32993
H          2.57957       -3.00703       -1.05674
H          0.26490       -2.28439       -1.08200
H          1.57928        1.67148        0.42681
H          3.84952        0.87929        0.40351
H         -1.57928       -1.67151        0.42670
H         -3.84952       -0.87932        0.40345
H         -2.57956        3.00710       -1.05655
H         -0.26490        2.28446       -1.08185
C         -4.71991        1.63554       -0.34192
C         -5.77804        0.62892        0.03450
H         -4.76730        2.49571        0.35660
H         -4.94074        2.01471       -1.36162
C         -6.17935        0.49390        1.37117
C         -7.14467       -0.45298        1.71864
C         -7.71324       -1.26678        0.73483
C         -6.35176       -0.18902       -0.95056
C         -7.31835       -1.13296       -0.59902
H         -6.05021       -0.09195       -1.98582
H         -7.76219       -1.75950       -1.36067
H         -8.46206       -1.99823        1.00546
H         -5.74117        1.11828        2.13909
H         -7.45293       -0.55488        2.75012
C          4.71991       -1.63552       -0.34203
C          5.77804       -0.62892        0.03446
H          4.94074       -2.01462       -1.36175
H          4.76730       -2.49573        0.35644
C          6.17935       -0.49398        1.37114
C          7.14467        0.45287        1.71866
C          7.71324        1.26673        0.73490
C          6.35176        0.18908       -0.95055
C          7.31835        1.13300       -0.59895
H          5.74117       -1.11841        2.13901
H          7.45293        0.55471        2.75014
H          8.46206        1.99817        1.00557
H          6.05021        0.09208       -1.98582
H          7.76219        1.75959       -1.36057
