30
energy:      -724.3902934840
N         -0.01474        3.57933        0.19186
C          0.41419        2.87271       -1.00538
C          0.42716        1.53589       -1.05083
C         -0.43005        2.83674        1.34333
C         -0.44216        1.50433        1.35448
C         -0.01051        0.75518        0.14203
C          0.01051       -0.75518        0.14203
C         -0.42716       -1.53589       -1.05083
C          0.44216       -1.50433        1.35448
C          0.43005       -2.83674        1.34333
C         -0.41419       -2.87271       -1.00538
N          0.01474       -3.57933        0.19186
H          0.74282       -3.36998        2.23568
H          0.76041       -0.97198        2.24631
H         -0.75238       -1.01937       -1.94940
H         -0.73664       -3.39800       -1.89621
H         -0.76041        0.97198        2.24631
H         -0.74282        3.36998        2.23568
H          0.73664        3.39800       -1.89621
H          0.75238        1.01937       -1.94940
O         -0.03830        4.93413        0.32365
C          0.34342        5.62044       -0.84289
H          1.40920        5.42340       -1.08923
H          0.26498        6.70445       -0.62663
H         -0.35528        5.41214       -1.68228
O          0.03830       -4.93413        0.32365
C         -0.34342       -5.62044       -0.84289
H         -1.40920       -5.42340       -1.08923
H         -0.26498       -6.70445       -0.62663
H          0.35528       -5.41214       -1.68228
