42
energy:      -957.3480549050
N          0.00000        0.00000        3.53699
C         -1.16641        0.39239        2.82396
C         -1.19687        0.40791        1.50298
C          1.16641       -0.39239        2.82396
C          1.19687       -0.40791        1.50298
C         -0.00000        0.00000        0.74867
C          0.00000        0.00000       -0.74867
C         -1.19687       -0.40791       -1.50298
C          1.19687        0.40791       -1.50298
C          1.16641        0.39240       -2.82396
C         -1.16641       -0.39240       -2.82396
N         -0.00000        0.00000       -3.53699
H         -2.07099       -0.69846       -0.96686
H         -2.01390       -0.64388       -3.40946
H         -2.01390        0.64387        3.40946
H         -2.07099        0.69846        0.96686
H          2.01390       -0.64387        3.40946
H          2.07099       -0.69846        0.96686
H          2.01390        0.64388       -3.40946
H          2.07099        0.69846       -0.96686
C         -0.00000        0.00000       -4.92469
C         -0.50046       -1.10558       -5.62715
C         -0.49475       -1.11687       -7.01296
C          0.00000        0.00000       -7.71473
C          0.50046        1.10558       -5.62715
C          0.49475        1.11687       -7.01296
C          0.00000        0.00000        4.92469
C         -0.50046        1.10558        5.62715
C         -0.49476        1.11687        7.01296
C         -0.00000        0.00000        7.71473
C          0.49476       -1.11687        7.01296
C          0.50046       -1.10558        5.62715
H         -0.86458       -1.97227       -5.08570
H         -0.87351       -1.96149       -7.55128
H          0.00000       -0.00000       -8.78798
H          0.86458        1.97227       -5.08570
H          0.87351        1.96149       -7.55128
H         -0.86458        1.97227        5.08570
H         -0.87352        1.96149        7.55128
H         -0.00000       -0.00000        8.78798
H          0.87352       -1.96149        7.55128
H          0.86458       -1.97227        5.08570
