48
energy:     -1035.9212024500
N          3.50481       -1.63240        0.71385
C          2.70299       -2.79502        0.99157
C          1.39038       -2.81079        0.74931
C          2.89381       -0.42652        0.19354
C          1.57548       -0.38950       -0.05763
C          0.73375       -1.59459        0.18494
H          1.11809        0.50214       -0.47473
H          3.16401       -3.68461        1.41754
H          0.80436       -3.69819        0.96722
C         -0.73171       -1.59385       -0.18625
C         -1.39218       -2.81129       -0.74600
C         -2.70274       -2.79815       -0.98739
C         -1.57927       -0.38740        0.05561
C         -2.89324       -0.43064       -0.19577
N         -3.49874       -1.63628       -0.71809
H         -1.11343        0.50737        0.46909
H         -0.80938       -3.69963       -0.96425
H         -3.16865       -3.68413       -1.40626
C         -4.88136       -1.64502       -1.16565
H         -5.22929       -0.63130       -1.44452
H         -5.53624       -2.08584       -0.38306
H         -4.97918       -2.24744       -2.09407
C          4.88297       -1.64718        1.16857
H          4.98121       -2.25327        2.09534
H          5.22954       -0.63221        1.45071
H          5.53406       -2.08360        0.38334
C         -3.70277        0.78437        0.12334
C         -3.27534        2.05654       -0.30511
C         -4.88049        0.67355        0.87765
C         -5.62466        1.81462        1.19610
C         -5.20463        3.06982        0.75010
C         -4.03473        3.19209       -0.00334
H         -2.37269        2.16457       -0.89193
H         -5.21197       -0.28977        1.24054
H         -6.52222        1.72350        1.79241
H         -5.78533        3.95142        0.99249
H         -3.71375        4.16389       -0.35280
C          3.70132        0.77981       -0.12444
C          3.27791        2.05352        0.30459
C          4.88272        0.66972       -0.87841
C          4.03560        3.18828        0.00145
C          5.20540        3.06555       -0.75307
C          5.62495        1.80968       -1.19814
H          5.21182       -0.29479       -1.24209
H          2.37324        2.16042        0.89030
H          3.71434        4.15926        0.34971
H          5.78576        3.94640       -0.99525
H          6.52207        1.71836       -1.79525
