34
energy:      -652.7433452660
N         -0.00058        3.54085        0.17788
C          0.41680        2.82589       -0.98246
C         -0.41608        2.81909        1.33213
C          0.43146        1.50508       -1.01222
C          0.00004        0.76061        0.17426
C         -0.43175        1.50281        1.36402
C         -0.00004       -0.76061        0.17426
C         -0.43146       -1.50508       -1.01222
C         -0.41680       -2.82589       -0.98246
N          0.00058       -3.54085        0.17788
C          0.41608       -2.81909        1.33213
C          0.43175       -1.50281        1.36402
H          0.71820       -3.40698        2.16436
H          0.74794       -0.96546        2.23069
H         -0.74807       -0.96682       -1.87780
H         -0.72114       -3.38843       -1.81867
H         -0.71820        3.40698        2.16436
H         -0.74794        0.96546        2.23069
H          0.72114        3.38843       -1.81867
H          0.74807        0.96682       -1.87780
C         -0.02462        4.97399        0.24587
C          0.42982        5.71095       -1.02253
H          0.62873        5.28913        1.08254
H         -1.06054        5.28917        0.47723
H          1.48325        5.47147       -1.27622
H          0.36536        6.79189       -0.84417
H         -0.22225        5.47044       -1.88759
C          0.02462       -4.97399        0.24587
C         -0.42982       -5.71095       -1.02253
H         -0.62873       -5.28913        1.08254
H          1.06054       -5.28917        0.47723
H         -1.48325       -5.47147       -1.27622
H         -0.36536       -6.79189       -0.84417
H          0.22225       -5.47044       -1.88759
