28
energy:      -574.1432419140
C         -2.75716       -1.09598       -1.14500
C         -3.52876       -0.17057       -0.29303
C         -1.28983       -0.98094       -1.09528
C         -2.90069        0.70174        0.50102
N         -1.49640        0.80722        0.52253
C         -0.71225       -0.05689       -0.31680
C          0.71226        0.05685       -0.31679
C          1.28985        0.98080       -1.09538
C          2.75719        1.09584       -1.14507
C          3.52877        0.17053       -0.29297
N          1.49639       -0.80715        0.52266
C          2.90068       -0.70167        0.50117
H         -3.25177       -1.80878       -1.81537
H         -0.71708       -1.63422       -1.71969
H         -4.59812       -0.21973       -0.32799
H         -3.44476        1.37572        1.11382
H          0.71712        1.63401       -1.71988
H          3.25181        1.80856       -1.81552
H          3.44473       -1.37558        1.11407
H          4.59812        0.21969       -0.32791
C         -0.87847        1.75056        1.37317
H         -1.61846        2.19334        2.07361
H         -0.44685        2.57922        0.76571
H         -0.07115        1.30083        1.99276
C          0.87844       -1.75039        1.37341
H          0.44684       -2.57913        0.76605
H          0.07110       -1.30059        1.99292
H          1.61841       -2.19308        2.07392
