36
energy:      -728.8359423500
N         -3.54785        0.29051       -0.34927
C         -2.87805       -0.89793        0.12085
C         -1.55398       -0.92168        0.27841
C         -2.80113        1.46489       -0.68067
C         -1.47469        1.49871       -0.56930
C         -0.75092        0.29123       -0.06403
C          0.75386        0.29163        0.06369
C          1.55813       -0.92104       -0.27950
C          2.88268       -0.89590       -0.12096
N          3.54964        0.28239        0.34706
C          1.47592        1.49700        0.56823
C          2.80573        1.46888        0.68262
H         -3.31517        2.34856       -1.05545
H         -0.92201        2.39135       -0.84580
H         -3.45098       -1.78710        0.36245
H         -1.06593       -1.81793        0.64784
H          3.31783        2.34808        1.05826
H          0.92493        2.39203        0.84858
H          1.06967       -1.81609       -0.65047
H          3.45510       -1.78585       -0.36508
C         -4.98105        0.26722       -0.57296
C         -5.71871       -0.32640        0.60263
H         -5.17633       -0.33147       -1.48940
H         -5.36108        1.29088       -0.75556
C         -6.47264       -1.41776        0.44944
C          4.98481        0.26881        0.57333
C          5.72287       -0.32208       -0.59878
H          5.18129       -0.32985        1.49069
H          5.36663        1.29487        0.75864
C          6.47331       -1.42002       -0.45057
H          5.63295        0.13703       -1.57911
H          6.57703       -1.89776        0.52071
H          6.99627       -1.84519       -1.29894
H         -5.62994        0.13580        1.58001
H         -6.57423       -1.89855       -0.52037
H         -6.99649       -1.84547        1.29996
