30
energy:      -650.2969055240
C          3.49689        0.10740        0.24958
C          2.77959        1.28733        0.36772
C          1.39069        1.28100        0.18376
C          2.84272       -1.05152       -0.14595
N          1.48768       -1.06737       -0.30803
C          0.71879        0.04417       -0.01112
C          0.68186        2.48678        0.14184
C         -0.68191        2.48679       -0.14182
C         -1.39082        1.28052       -0.18302
C         -0.71862        0.04498        0.01059
H          4.57363        0.10068        0.37166
H          3.43155       -1.93067       -0.38310
H          3.30494        2.21024        0.57442
H          1.20269        3.43147        0.24994
H         -1.20266        3.43151       -0.25001
C         -2.77972        1.28746       -0.36774
C         -3.49650        0.10793       -0.24947
N         -1.48688       -1.06719        0.30766
C         -2.84265       -1.05172        0.14536
H         -3.43139       -1.93027        0.38287
H         -4.57364        0.10070       -0.37163
H         -3.30494        2.21032       -0.57444
C          0.96162       -2.23431       -1.04451
H          1.54005       -2.33920       -1.99013
H         -0.07424       -2.08478       -1.40950
H          1.08344       -3.17559       -0.47278
C         -0.96167       -2.23430        1.04439
H          0.07426       -2.08485        1.40942
H         -1.08352       -3.17593        0.47247
H         -1.53987       -2.33928        1.98975
