51
energy:     -1150.1539612800
C         -3.49342        1.32201        0.30062
C         -2.84204        0.11445        0.03979
C         -2.76492        2.45920        0.59398
C         -1.41618        0.10966       -0.03528
N         -1.40511        2.46276        0.52161
C         -0.70683        1.33938        0.10307
C         -0.68805       -1.07180       -0.25003
C          0.69594       -1.07764       -0.22892
C          1.43074        0.11586       -0.14025
C          0.72908        1.35291       -0.09869
C          2.85445        0.11166       -0.19407
C          3.51529        1.33055       -0.36096
C          2.79674        2.50410       -0.48948
N          1.43767        2.52018       -0.36278
H         -4.57201        1.36044        0.39287
H         -3.29951        3.33924        0.93288
H         -1.16878       -2.02024       -0.40552
H          1.18206       -2.03006       -0.37153
C          0.74674        3.74643       -0.80458
C          0.03817        4.50370        0.27305
H          0.00763        3.44410       -1.58214
H          1.42693        4.46202       -1.31801
C         -0.70235        3.57906        1.18435
H         -0.65919        5.21663       -0.21810
H          0.75623        5.08479        0.89286
H         -1.37816        4.19572        1.81826
H          0.01938        3.12644        1.90381
H          4.59433        1.37546       -0.42771
H          3.33886        3.41594       -0.71232
C         -3.70255       -1.10548       -0.08335
C         -4.88034       -1.05707       -0.85691
C         -5.70684       -2.17924       -0.96218
C         -5.38240       -3.35472       -0.28310
C         -4.23319       -3.40975        0.50665
C         -3.39860       -2.29456        0.61036
H         -2.53218       -2.35395        1.25583
H         -5.14891       -0.15495       -1.39300
H         -6.60151       -2.13572       -1.56959
H         -6.02654       -4.22053       -0.36105
H         -3.99125       -4.31550        1.04710
C          3.68628       -1.12884       -0.05155
C          3.33646       -2.12103        0.88974
C          4.13720       -3.25064        1.06444
C          5.29739       -3.40989        0.30725
C          5.66471       -2.43369       -0.62089
C          4.87286       -1.29423       -0.79497
H          5.17944       -0.55151       -1.51982
H          2.45882       -2.00794        1.51340
H          3.86076       -3.99853        1.79656
H          5.91653       -4.28599        0.44684
H          6.56799       -2.55712       -1.20353
