32
energy:      -651.5204709920
C         -3.52240       -0.18530        0.22541
C         -2.93931        1.05364       -0.31782
C         -1.47549        1.14588       -0.44622
C         -2.73466       -1.21847        0.51545
N         -1.32183       -1.11621        0.40040
C         -0.72216        0.12837        0.00853
C          0.72216        0.12838       -0.00854
N          1.32183       -1.11621       -0.40040
C         -0.53088       -2.28650        0.55785
C          0.53088       -2.28650       -0.55785
H         -1.14434       -3.19827        0.50035
H         -0.02147       -2.25261        1.54699
H          0.02147       -2.25261       -1.54699
H          1.14434       -3.19827       -0.50035
C          1.47549        1.14588        0.44623
C          2.93930        1.05364        0.31781
C          3.52240       -0.18530       -0.22540
C          2.73466       -1.21847       -0.51545
H         -4.58549       -0.23303        0.33470
H         -3.13466       -2.14530        0.85982
H          4.58549       -0.23303       -0.33470
H          3.13466       -2.14530       -0.85982
H         -3.57629        1.87869       -0.65413
H          3.57629        1.87869        0.65413
C          0.95529        2.35131        1.16383
H         -0.08324        2.22807        1.46824
H          1.10315        3.24181        0.54711
H          1.56241        2.48563        2.09523
C         -0.95529        2.35130       -1.16383
H         -1.56242        2.48563       -2.09523
H          0.08324        2.22807       -1.46824
H         -1.10315        3.24181       -0.54712
