40
energy:      -731.3374076670
N         -3.53383        0.02920        0.05465
C         -2.82671        1.17459       -0.43534
C         -1.48978        1.17911       -0.45605
C         -2.82598       -1.16825        0.43510
C         -1.49053       -1.18376        0.43734
C         -0.75014        0.00216        0.00453
H         -0.94298       -2.04397        0.76094
H         -0.93808        2.03165       -0.79505
C          0.75015       -0.00216        0.00455
C          1.49052        1.18385        0.43713
C          2.82597        1.16834        0.43493
C          1.48980       -1.17920       -0.45577
C          2.82673       -1.17468       -0.43502
N          3.53385       -0.02920        0.05473
H          0.93810       -2.03181       -0.79461
H          0.94296        2.04412        0.76055
C          4.95765        0.00140        0.02963
H          5.39603       -1.00800        0.02853
H          5.34579        0.47341        0.95404
H          5.34509        0.55557       -0.85096
C         -4.95765       -0.00137        0.02949
H         -5.39598        1.00807        0.02851
H         -5.34586       -0.47344        0.95384
H         -5.34508       -0.55542       -0.85117
C          3.58200       -2.34855       -0.91451
H          2.89223       -3.09453       -1.30353
H          4.16555       -2.78107       -0.07934
H          4.28808       -2.03814       -1.71593
C         -3.59664       -2.34629        0.87710
H         -4.33375       -2.62354        0.09480
H         -4.15375       -2.09942        1.80327
H         -2.92037       -3.17537        1.06549
C          3.59662        2.34646        0.87672
H          2.92036        3.17559        1.06490
H          4.33378        2.62353        0.09440
H          4.15369        2.09976        1.80296
C         -3.58198        2.34836       -0.91507
H         -4.28808        2.03777       -1.71641
H         -2.89221        3.09424       -1.30426
H         -4.16552        2.78107       -0.07999
