34
energy:      -652.7593129800
N         -3.52783       -0.53390       -0.13539
C         -3.00763        0.73621        0.31141
C         -1.68182        0.95731        0.32538
C         -2.64958       -1.58073       -0.57681
C         -1.32513       -1.41082       -0.58880
C         -0.74781       -0.11367       -0.12989
H         -3.05535       -2.53101       -0.91005
H         -0.67527       -2.21206       -0.92731
H         -1.27816        1.90840        0.66106
C          0.74759        0.11353       -0.12937
C          1.32591        1.41091       -0.58881
C          2.64802        1.58025       -0.57697
C          1.68278       -0.95687        0.32613
C          3.00644       -0.73661        0.31133
N          3.52790        0.53358       -0.13538
H          1.27814       -1.90923        0.66156
H          0.67510        2.21155       -0.92735
H          3.05562        2.53136       -0.91104
C          4.95807        0.77088       -0.14710
H          5.36313        0.66907        0.88133
H          5.20218        1.79094       -0.51160
H          5.45337        0.03965       -0.81914
C         -4.95895       -0.77108       -0.14687
H         -5.45405       -0.03976       -0.81918
H         -5.36388       -0.66912        0.88157
H         -5.20219       -1.79102       -0.51136
C          3.94000       -1.83317        0.76823
H          3.39227       -2.74999        1.07619
H          4.53139       -1.47878        1.63597
H          4.62217       -2.10690       -0.06259
C         -3.93933        1.83302        0.76757
H         -4.53138        1.47899        1.63594
H         -4.62219        2.10711       -0.06260
H         -3.39206        2.75007        1.07615
