34
energy:      -652.7472237260
N          3.51804       -0.11709       -0.29251
C          2.76798       -0.96782       -1.13704
C          1.44236       -0.94700       -1.14215
C          2.87381        0.78127        0.59280
C          1.54506        0.86475        0.65357
C          0.74461       -0.01024       -0.23622
H          3.50023        1.40749        1.22684
H          3.30080       -1.63660       -1.81127
H          0.85860       -1.58283       -1.78579
C         -0.74456        0.01019       -0.23625
C         -1.44230        0.94626       -1.14281
C         -2.76787        0.96708       -1.13798
C         -1.54506       -0.86436        0.65394
C         -2.87385       -0.78103        0.59286
N         -3.51802        0.11667       -0.29308
H         -0.85847        1.58171       -1.78692
H         -3.30054        1.63538       -1.81269
C         -4.95796        0.14817       -0.33312
H         -5.36480        0.14822        0.69049
H         -5.31664       -0.76271       -0.87177
H         -5.31838        1.04283       -0.86884
C          4.95818       -0.14770       -0.33346
H          5.31818       -1.05135       -0.85453
H          5.36624       -0.13122        0.68961
H          5.31539        0.75420       -0.88715
H         -3.50041       -1.40685        1.22726
C          0.86771        1.81201        1.59156
H          1.62709        2.31235        2.22168
H          0.15187        1.27602        2.24587
H          0.31650        2.57597        1.00969
C         -0.86780       -1.81098        1.59261
H         -0.31645       -2.57522        1.01127
H         -1.62726       -2.31101        2.22290
H         -0.15213       -1.27451        2.24669
