18
energy:      -534.6888811610
C         -3.02515        0.35707        0.00017
C         -1.99884        1.30367        0.00021
C         -0.65823        0.88994        0.00097
C         -2.72140       -1.00745        0.00007
C         -1.38942       -1.43070        0.00074
C         -0.35049       -0.48711        0.00092
H         -3.51981       -1.73704       -0.00018
H         -1.16810       -2.49048        0.00052
H         -4.05766        0.68244       -0.00028
H         -2.24561        2.35850       -0.00027
C          1.07013       -0.91126        0.00041
C          2.11570        0.12857        0.00046
C          1.71849        1.55306       -0.00009
C          0.42154        1.90593        0.00024
O          1.37364       -2.09533        0.00037
O          3.29824       -0.17865       -0.00035
H          2.48254        2.32358       -0.00064
H          0.16014        2.96083       -0.00002
