29
energy:     -1461.7208990600
C          5.45680       -0.10354        0.00241
C          5.14870       -1.46283        0.00381
C          4.43330        0.84409       -0.00134
C          3.08404        0.43840       -0.00353
C          2.77474       -0.92812       -0.00223
C          3.81745       -1.87614        0.00154
C          2.00447        1.44597       -0.00909
C          0.55745        1.03005       -0.01218
C          0.23910       -0.36937       -0.01143
C          1.36510       -1.37030       -0.00541
H          3.59993       -2.93773        0.00325
H          5.94335       -2.19672        0.00543
H          6.48907        0.21814        0.00318
H          4.69345        1.89521       -0.00212
C         -1.14098       -0.76768       -0.00985
C         -2.14400        0.20258       -0.01131
C         -1.82899        1.55017       -0.01693
C         -0.51209        1.98725       -0.01629
H         -2.62507        2.28441       -0.01749
O          1.14268       -2.56829       -0.00392
O          2.32027        2.62316       -0.00906
O         -1.55460       -2.05965       -0.00251
H         -1.02175       -2.85643       -0.00034
O         -0.33661        3.33103       -0.01651
H          0.48765        3.82082       -0.00473
S         -3.86806       -0.29672        0.01534
O         -4.83361        0.89616       -0.05203
O         -4.25812       -1.08712       -1.24227
O         -4.40412       -1.24252        1.34253
