27
energy:      -801.7098186830
C          4.59033        0.26003       -0.00036
C          4.34459       -1.11458       -0.00088
C          3.52450        1.16445       -0.00044
C          2.19902        0.69342       -0.00071
C          3.03363       -1.59184       -0.00176
C          1.95399       -0.69347        0.00003
C          1.05032        1.63210        0.00021
C         -0.33382        1.10602        0.00011
C          0.55787       -1.18790        0.00126
C         -0.57645       -0.22722        0.00084
H          5.60819        0.62586       -0.00057
H          3.73151        2.22709        0.00065
H          5.17135       -1.81275       -0.00135
H          2.85943       -2.66070       -0.00095
H         -1.15197        1.81955        0.00024
O          1.23465        2.84031       -0.00123
O          0.33447       -2.39081       -0.00014
C         -1.98318       -0.78401        0.00046
O         -2.93843        0.21111        0.00047
H         -2.11088       -1.41602        0.90688
H         -2.11070       -1.41580       -0.90604
C         -4.27075       -0.03881        0.00025
O         -4.69502       -1.18650        0.00017
C         -5.22301        1.10908       -0.00013
H         -5.04797        1.72714       -0.90519
H         -5.04855        1.72722        0.90495
H         -6.27304        0.74925       -0.00046
