22
energy:      -649.1578688950
C          3.19271       -1.17891       -0.00016
C          3.47248        0.19901       -0.00019
C          1.87254       -1.61449        0.00003
C          2.43034        1.11760       -0.00006
H          4.00255       -1.89384       -0.00026
H          4.49912        0.53837       -0.00032
C          0.82040       -0.70057        0.00018
C          1.10025        0.68505        0.00015
H          1.65759       -2.68238        0.00003
H          2.64825        2.18389       -0.00011
C         -0.56203       -1.16431       -0.00011
C         -1.65508       -0.16923        0.00021
C         -1.38712        1.16130        0.00013
C         -0.00967        1.66067       -0.00001
O         -0.82649       -2.36513        0.00007
O          0.21443        2.86531        0.00006
H         -2.17848        1.89471       -0.00004
C         -3.06014       -0.69640        0.00000
O         -3.97409        0.37083       -0.00025
H         -3.18357       -1.33447        0.90625
H         -3.18332       -1.33461       -0.90625
H         -4.87503       -0.03438       -0.00026
