21
energy:     -3147.2429577300
C          0.53616       -1.56578        0.59782
C          0.97582       -0.23310        0.73109
C         -0.79234       -1.83324        0.28335
C         -1.70033       -0.79548        0.09410
C          0.06262        0.80737        0.55174
C         -1.27200        0.53717        0.23161
C         -3.11443       -1.08646       -0.24874
C         -4.03372        0.04673       -0.44505
C         -3.61703        1.33225       -0.31274
C         -2.22555        1.65702        0.02932
H          1.22926       -2.37665        0.74651
H         -1.12505       -2.86310        0.18228
H          0.38870        1.84018        0.64839
H         -5.05786       -0.17307       -0.69802
H         -4.30348        2.14965       -0.45888
O         -3.50985       -2.23253       -0.36640
O         -1.87151        2.81819        0.15728
C          2.40573        0.05665        1.06651
Br         3.50802        0.07560       -0.50838
H          2.80738       -0.71523        1.75615
H          2.49582        1.05241        1.55148
