30
energy:      -650.3226968380
C         -3.30550        0.73444        0.07732
C         -2.45145        1.74080        0.22575
C         -1.00102        1.47393        0.19843
C         -0.53534        0.07121        0.00690
N         -2.84168       -0.59710       -0.13794
C         -1.46030       -0.88901       -0.17820
C         -0.04068        2.61190        0.14025
C          1.27761        2.41020       -0.02423
C          1.84507        1.04816       -0.11267
C          0.94575       -0.15662       -0.04950
C          3.16522        0.87760       -0.24551
C          3.75075       -0.46900       -0.23834
N          1.58982       -1.44706        0.13408
C          3.00192       -1.55432       -0.02743
H         -4.37169        0.91382        0.10013
H         -2.80340        2.75203        0.35732
H         -1.20348       -1.89579       -0.39218
H         -0.42248        3.62129        0.22228
H          1.94095        3.26042       -0.07202
H          3.45226       -2.52727        0.01555
H          3.81964        1.74074       -0.33575
H          4.81881       -0.58379       -0.35073
C         -3.79045       -1.66005       -0.35268
H         -4.38126       -1.43247       -1.26144
H         -4.43873       -1.75737        0.53906
H         -3.28191       -2.63763       -0.51999
C          0.86891       -2.63274        0.52231
H          0.12511       -2.38879        1.31775
H          1.54934       -3.37722        0.95834
H          0.43349       -3.10370       -0.38484
