42
energy:     -1049.0741857600
C          1.77324       -3.67776        0.11219
C          3.13884       -3.60597       -0.17915
C          1.02410       -2.51000        0.28412
C          3.76192       -2.36125       -0.29832
C          3.02580       -1.19094       -0.13154
C          1.64626       -1.25205        0.16033
H          1.29398       -4.64371        0.20372
H         -0.03222       -2.59276        0.50738
H          3.71535       -4.50684       -0.31123
H          4.81924       -2.30655       -0.52093
C          0.92731       -0.05231        0.32059
C          1.60155        1.18079        0.19330
C          2.98683        1.17598       -0.09129
N          3.64639        0.00653       -0.24641
C          0.93981        2.41332        0.35597
C          1.65281        3.60976        0.23367
C          3.02356        3.59017       -0.04338
C          3.68551        2.37632       -0.20574
H          4.74731        2.35928       -0.41744
H          3.57313        4.51699       -0.13294
H         -0.11797        2.45698        0.57417
H          1.14353        4.55476        0.35789
N         -0.45114       -0.09446        0.66167
C         -1.43249        0.09237       -0.15475
C         -2.83150       -0.03587        0.35474
C         -3.84823       -0.07748       -0.54439
C         -3.59722        0.05905       -1.98694
C         -2.22803        0.28981       -2.46843
C         -1.20316        0.31141       -1.61605
H         -4.87956       -0.18395       -0.22625
H         -2.05248        0.43643       -3.53085
H         -0.19888        0.46717       -1.98927
O         -4.52998        0.01422       -2.77449
N         -3.11655       -0.12681        1.76749
C         -2.30860        0.56533        2.76379
H         -1.99931       -0.13407        3.56892
H         -2.93015        1.37331        3.20334
H         -1.42154        1.08568        2.36892
C         -4.39051       -0.64241        2.21556
H         -4.32293       -0.97036        3.27290
H         -4.67461       -1.53245        1.61212
H         -5.14803        0.16070        2.11168
