38
energy:     -1029.6588262400
C         -1.45341        3.64901       -0.46274
C         -2.73095        3.61165        0.10045
C         -0.77692        2.46074       -0.75309
C         -1.37809        1.21821       -0.47354
C         -2.66993        1.18821        0.10143
C         -3.33886        2.38551        0.38274
H         -0.98600        4.60153       -0.67781
H          0.21149        2.51631       -1.19138
H         -3.25207        4.53507        0.31803
H         -4.33129        2.36586        0.81478
C         -0.73063        0.00076       -0.76114
C         -1.37774       -1.21682       -0.47346
N         -3.27187       -0.00040        0.37118
C         -2.66936       -1.18764        0.10272
C         -0.77530       -2.45937       -0.75154
C         -1.45133       -3.64750       -0.46142
C         -2.72920       -3.61096        0.10170
C         -3.33786       -2.38483        0.38308
H          0.21313       -2.51441       -1.18985
H         -0.98370       -4.59994       -0.67618
H         -3.24978       -4.53429        0.31898
H         -4.32999       -2.36560        0.81528
N          0.53086        0.00135       -1.41408
C          1.82329        0.00039       -0.81106
C          2.02471        0.00044        0.54048
C          2.97530        0.00098       -1.75390
C          3.44374        0.00048        1.08918
C          4.55759        0.00093        0.09313
C          4.24503        0.00130       -1.33975
H          2.77017        0.00117       -2.82032
H          5.04882        0.00105       -2.07041
H          3.67476       -0.00006        2.17490
O          5.71776        0.00093        0.46928
O          0.96326        0.00029        1.39540
C          1.07742       -0.00055        2.77257
H          1.61861        0.90900        3.11445
H          1.61875       -0.90994        3.11361
H          0.06791       -0.00068        3.22924
