27
energy:     -1489.0129157800
C         -3.32694       -1.38367       -0.04874
C         -3.67851       -0.04441        0.19956
C         -2.02413       -1.71289       -0.40159
C         -1.04137       -0.71983       -0.50479
C         -1.38960        0.62291       -0.26649
C         -2.70513        0.94931        0.07852
H         -4.05289       -2.18175        0.03906
H         -1.76922       -2.75216       -0.56894
H         -2.97319        1.98457        0.25654
N          0.29167       -1.11960       -0.78479
C          1.40957       -0.32860       -0.41317
C          1.29750        1.05316       -0.16084
S         -0.21692        1.96280       -0.44133
C          2.64715       -0.96338       -0.23169
C          3.75372       -0.24258        0.22131
C          3.63476        1.12325        0.48375
C          2.41128        1.76751        0.28912
H          2.33481        2.83214        0.47902
H          4.49010        1.68687        0.83758
H          0.45975       -2.11430       -1.00174
H          2.74350       -2.02656       -0.41124
Cl         5.28524       -1.05802        0.47320
O         -4.94004        0.31504        0.54844
C         -5.98689       -0.57000        0.70016
H         -6.17593       -1.09817       -0.25891
H         -6.90118       -0.01155        0.98540
H         -5.75308       -1.30481        1.50062
