32
energy:      -651.5419502280
C         -0.04875        3.58703       -0.17765
C          0.28176        2.93217        1.12411
C          0.21687        1.45063        1.19241
C         -0.26127        2.83361       -1.26595
N         -0.20648        1.40515       -1.19283
C         -0.00376        0.73803        0.06549
C          0.00376       -0.73803        0.06549
N          0.20648       -1.40515       -1.19283
C         -0.46328        0.60758       -2.38440
C          0.46328       -0.60758       -2.38440
H         -0.31634        1.21382       -3.30669
H         -1.51330        0.23941       -2.36826
H          1.51330       -0.23941       -2.36826
H          0.31634       -1.21382       -3.30669
C         -0.21687       -1.45063        1.19241
C         -0.28176       -2.93217        1.12411
C          0.04875       -3.58703       -0.17765
C          0.26127       -2.83361       -1.26595
H         -0.11062        4.66846       -0.24255
H         -0.49084        3.32082       -2.21029
H          0.11062       -4.66846       -0.24255
H          0.49084       -3.32082       -2.21029
H          0.40878        0.97230        2.14246
H         -0.40878       -0.97230        2.14246
C         -0.43272       -3.73611        2.40017
H         -0.84058       -3.09855        3.21146
H          0.55084       -4.14384        2.71114
H         -1.14875       -4.56394        2.21017
C          0.43272        3.73611        2.40017
H          0.84058        3.09855        3.21146
H         -0.55084        4.14384        2.71114
H          1.14875        4.56394        2.21017
