35
energy:      -690.8232837400
C         -3.57855       -0.08034        0.32804
C         -2.92378       -1.23161       -0.38354
C         -2.82847        0.93844        0.77459
N         -1.41317        0.93828        0.59413
C         -1.43396       -1.27844       -0.37774
C         -0.74059       -0.21493        0.04938
C          0.74461       -0.21445       -0.04041
N          1.41827        0.93712       -0.58605
C          1.44008       -1.27858        0.38388
C          2.93265       -1.22901        0.38360
C          3.58319       -0.08074       -0.32896
C          2.83527        0.94173       -0.76900
C         -0.62516        2.03808        1.12347
C          0.00050        2.86787        0.00103
H          0.16762        1.61488        1.78557
H         -1.22541        2.71696        1.76873
C          0.62847        2.03490       -1.11932
H          0.77154        3.52023        0.46500
H         -0.77135        3.51794       -0.46268
H          1.22622        2.71667       -1.76612
H         -0.16480        1.61205       -1.77892
H          0.93568       -2.14399        0.80131
H          4.65970       -0.06611       -0.47108
H          3.31891        1.77557       -1.26294
H         -0.92607       -2.14694       -0.79688
H         -4.65132       -0.06437        0.46800
H         -3.31475        1.77683        1.26240
C          3.72707       -2.46769        0.74848
H          3.15497       -3.07494        1.48025
H          4.67758       -2.15144        1.22293
H          3.93257       -3.07364       -0.15728
C         -3.72141       -2.46616       -0.74896
H         -3.93106       -3.07299        0.15525
H         -3.15045       -3.07554       -1.48088
H         -4.67259       -2.14990       -1.22495
