38
energy:      -730.1027632470
C         -3.56280       -0.33806       -0.37595
C         -2.90831       -1.38980        0.46412
C         -1.42141       -1.41661        0.48785
C         -2.81440        0.63012       -0.92165
N         -1.39264        0.66903       -0.73986
C         -0.72628       -0.41322       -0.06675
H         -4.63331       -0.35265       -0.53233
H         -3.30468        1.39486       -1.52219
H         -0.90682       -2.21811        1.01862
C          0.72649       -0.40977        0.06230
N          1.39280        0.67278        0.73972
C         -0.63224        1.72205       -1.41936
C         -0.54751        2.96853       -0.54168
H         -1.18324        1.99119       -2.34754
H          0.36734        1.39127       -1.77721
C          0.63152        1.71944        1.41882
C          0.54902        2.97112        0.54198
H          1.18114        1.99066        2.34734
H         -0.36868        1.38919        1.77554
H         -1.54763        3.12681       -0.07835
H         -0.34215        3.85415       -1.18282
H          1.54771        3.12741        0.07973
H          0.34133        3.85489        1.18421
C          1.42248       -1.41753       -0.49231
C          2.91003       -1.38868       -0.46463
C          3.56057       -0.33779        0.37503
H          0.90844       -2.21823       -1.01925
C          2.81510        0.63240        0.92135
H          3.30346        1.39509        1.52105
H          4.63295       -0.35200        0.53227
C         -3.70643       -2.56448        0.99909
H         -4.59944       -2.17324        1.52731
H         -3.09435       -3.14191        1.72461
H         -4.01604       -3.22658        0.16595
C          3.70653       -2.56458       -0.99922
H          3.09463       -3.14180       -1.72483
H          4.01575       -3.22681       -0.16578
H          4.59998       -2.17350       -1.52711
