38
energy:      -730.1242655420
C          3.54279       -0.12717       -0.09581
C          2.88944        1.16927        0.18330
C          1.42432        1.20789        0.21313
C          2.78006       -1.21716       -0.27797
N          1.35650       -1.15426       -0.22832
C          0.72328        0.10875       -0.01294
C         -0.72328        0.10875        0.01293
N         -1.35650       -1.15426        0.22833
C          0.60886       -2.34372       -0.46056
C         -0.60886       -2.34372        0.46056
H          1.22211       -3.24012       -0.26852
H          0.27354       -2.36256       -1.52009
H         -0.27354       -2.36256        1.52009
H         -1.22211       -3.24012        0.26852
C         -1.42432        1.20788       -0.21314
C         -2.88943        1.16927       -0.18331
C         -3.54279       -0.12717        0.09582
C         -2.78006       -1.21716        0.27797
H          3.21890       -2.16608       -0.47654
H         -3.21890       -2.16608        0.47654
C         -3.68394        2.42339       -0.41917
H         -3.01180        3.27548       -0.61642
H         -4.29869        2.62915        0.47015
H         -4.34733        2.26248       -1.28240
C         -5.02380       -0.19661        0.15602
H         -5.45922        0.12647       -0.80790
H         -5.40912        0.47622        0.94529
H         -5.34001       -1.22714        0.37090
C          3.68394        2.42339        0.41917
H          3.01180        3.27548        0.61641
H          4.29870        2.62914       -0.47015
H          4.34732        2.26249        1.28240
C          5.02380       -0.19661       -0.15601
H          5.34001       -1.22714       -0.37090
H          5.45922        0.12647        0.80790
H          5.40912        0.47621       -0.94529
H          0.95452        2.13780        0.43920
H         -0.95452        2.13780       -0.43920
