44
energy:      -808.6835369510
C          3.58168       -0.30054        0.22350
C          2.88141       -1.39642       -0.52633
C          1.39576       -1.38316       -0.53572
C          2.85608        0.68364        0.78234
N          1.42536        0.70965        0.68070
C          0.73020       -0.36690        0.03337
H          3.36102        1.47414        1.33230
C         -0.73098       -0.36887       -0.03712
N         -1.42479        0.71303       -0.67769
C          0.70127        1.76693        1.38694
C          0.57790        3.01611        0.51021
H          1.29589        2.04065        2.28636
H         -0.28127        1.44053        1.79348
C         -0.69997        1.76908       -1.38464
C         -0.57693        3.01951       -0.50900
H         -1.29621        2.04173       -2.28458
H          0.27989        1.44241       -1.79131
H          1.55184        3.16841       -0.00559
H          0.40721        3.90023        1.16055
H         -1.55091        3.17009        0.00623
H         -0.40596        3.90135       -1.15980
C         -1.39476       -1.38255        0.53359
C         -2.88382       -1.39570        0.52595
C         -3.57949       -0.29749       -0.22274
C         -2.85667        0.68821       -0.77891
H         -3.36076        1.47925       -1.33094
C         -3.63566       -2.53961        1.18799
H         -2.93555       -3.22784        1.70693
H         -4.19564       -3.10618        0.41831
H         -4.33991       -2.12431        1.93895
C         -5.07640       -0.31452       -0.34785
H         -5.52402       -0.27741        0.66457
H         -5.38590       -1.25152       -0.85656
H         -5.45090        0.54681       -0.93806
C          3.63627       -2.53982       -1.18925
H          2.93575       -3.22822       -1.70755
H          4.19560       -3.10649       -0.41854
H          4.34065       -2.12485       -1.93943
C          5.07592       -0.31624        0.34875
H          5.45067        0.54593        0.93848
H          5.52443       -0.27770       -0.66477
H          5.38685       -1.25298        0.85681
H          0.85509       -2.17968       -1.04417
H         -0.85542       -2.18048        1.04065
