30
energy:      -650.3410776630
C          3.40459        0.81194        0.00000
C          2.37458        1.75064        0.00000
C          1.04429        1.30544       -0.00000
C          0.77035       -0.08498       -0.00000
N          3.14126       -0.50024        0.00000
C          1.86917       -0.97284       -0.00000
C         -0.00298        2.23014        0.00000
C         -1.31315        1.79814       -0.00000
C         -1.62764        0.41928        0.00000
C         -0.58583       -0.52946       -0.00000
N         -2.92913        0.01875        0.00000
C         -0.93470       -1.90614       -0.00000
C         -2.27397       -2.27789        0.00000
C         -3.25665       -1.30164        0.00000
H          4.44211        1.13750        0.00000
H          2.61959        2.80086       -0.00000
H          1.73453       -2.03209       -0.00000
H          0.18687        3.29607        0.00000
H         -2.09825        2.54497       -0.00000
H         -0.19764       -2.68995       -0.00000
H         -2.55866       -3.32439        0.00000
H         -4.29436       -1.58307       -0.00000
C         -4.02706        0.97722       -0.00000
H         -3.96917        1.60822       -0.90881
H         -3.96917        1.60822        0.90881
H         -5.00220        0.46228       -0.00000
C          4.24660       -1.44134        0.00000
H          4.86412       -1.27841       -0.90417
H          3.88582       -2.48836       -0.00001
H          4.86411       -1.27843        0.90418
