30
energy:      -650.3459296890
C         -3.64213        0.44958        0.00002
C         -2.83289        1.51210        0.00002
C         -1.37932        1.31551        0.00000
C         -0.84416       -0.08425       -0.00013
N         -3.11921       -0.87166       -0.00002
C         -1.72127       -1.11068       -0.00006
C         -0.43142        2.46874        0.00003
C          0.89144        2.29019        0.00003
C          1.48186        0.94424        0.00002
C          0.60936       -0.27028       -0.00005
H         -4.70653        0.58337        0.00000
H         -3.22363        2.51672        0.00002
H         -1.38531       -2.13149       -0.00005
H         -0.85313        3.46196        0.00004
H          1.54654        3.14500        0.00005
C          2.80685        0.79058        0.00002
N          3.37342       -0.51449        0.00000
C          1.24620       -1.59865       -0.00003
C          2.56724       -1.68331       -0.00002
H          0.64838       -2.49034       -0.00003
H          3.03339       -2.64445       -0.00003
H          3.46254        1.65110        0.00003
C         -4.02525       -1.98742       -0.00000
H         -4.65699       -1.93277       -0.90618
H         -4.65647       -1.93318        0.90655
H         -3.48037       -2.95346       -0.00039
C          4.80983       -0.66594        0.00000
H          5.31908        0.32617        0.00003
H          5.11454       -1.21904       -0.90576
H          5.11453       -1.21908        0.90574
