23
energy:     -1014.2937147700
C         -3.96397        0.83778       -0.46547
C         -3.99186       -0.55186       -0.59570
C         -2.79496        1.47457       -0.05598
C         -1.64083        0.73203        0.22443
C         -1.67597       -0.67424        0.10650
C         -2.85329       -1.30547       -0.30258
H         -4.84458        1.42359       -0.69491
H         -2.77491        2.55435        0.01670
H         -4.89737       -1.04707       -0.91993
H         -2.88556       -2.38194       -0.39573
N         -0.45185        1.42755        0.55099
C          0.82979        0.86852        0.31578
C          1.03378       -0.52235        0.21293
S         -0.27249       -1.70344        0.52120
C          1.91304        1.73893        0.11927
C          3.17523        1.23562       -0.19340
C          3.37326       -0.14094       -0.30425
C          2.30396       -1.01757       -0.09769
H          1.76714        2.80765        0.17971
H          3.99962        1.91821       -0.35662
H          2.46584       -2.08591       -0.17497
H         -0.51128        2.45333        0.66977
F          4.59944       -0.62827       -0.61238
