23
energy:     -1212.2242428100
C          5.56023        0.47791       -0.68828
C          5.43350       -0.90955       -0.72501
C          4.48955        1.26577       -0.26192
C          3.27270        0.67443        0.12180
C          3.15498       -0.72995        0.09426
C          4.23958       -1.51182       -0.32644
H          6.48496        0.94516       -0.99921
H          4.59649        2.34372       -0.25581
H          6.26146       -1.52073       -1.05950
H          4.15509       -2.59160       -0.34528
N          2.18283        1.51871        0.46509
C          0.82858        1.08847        0.38786
C          0.47678       -0.27605        0.38741
S          1.67670       -1.58215        0.63508
C         -0.17852        2.05772        0.24586
C         -1.51354        1.67683        0.07986
C         -1.85459        0.32446        0.06619
C         -0.86373       -0.64574        0.22980
H          0.07440        3.10935        0.23469
H         -2.27477        2.43301       -0.04848
H         -1.14004       -1.69370        0.23160
H          2.35972        2.53528        0.51145
I         -3.86494       -0.25185       -0.20342
