32
energy:      -800.6766283770
C          5.00460       -0.11817       -0.06455
C          4.40877       -1.46442       -0.33408
C          2.92366       -1.55775       -0.28097
C          4.21960        0.94013        0.18272
N          2.79663        0.80817        0.20765
C          2.17509       -0.46749       -0.01512
C          0.69404       -0.52445        0.01002
N         -0.02360        0.71137       -0.13886
C          1.96031        1.96567        0.51489
C          0.71326        1.95020       -0.37828
H          2.52535        2.91577        0.38531
H          1.61681        1.90436        1.57008
H          1.05462        1.97657       -1.43789
H          0.08045        2.83992       -0.19222
C          0.03031       -1.68204        0.20608
C         -1.45178       -1.70803        0.25721
C         -2.15622       -0.39919        0.06769
C         -1.44827        0.73238       -0.11215
H          6.08162       -0.00747       -0.06528
H          4.67928        1.90161        0.38594
H         -1.96584        1.67836       -0.26226
H          2.47548       -2.51902       -0.49692
H          0.54314       -2.62146        0.35782
H          5.02196       -2.35736       -0.56762
H         -1.99197       -2.65970        0.43628
C         -3.62622       -0.37738        0.06754
O         -4.25324       -1.41666        0.23150
O         -4.27649        0.79353       -0.13361
C         -5.63972        0.89102       -0.16515
H         -6.03983        0.25836       -0.98615
H         -5.91236        1.94823       -0.34688
H         -6.05446        0.56166        0.81090
