27
energy:     -1029.5456704200
C         -4.36256        0.85878        0.55429
C         -4.39614       -0.53052        0.68814
C         -3.20076        1.48820        0.10979
C         -2.05365        0.73632       -0.19455
C         -2.09509       -0.66602       -0.07161
C         -3.26896       -1.28826        0.36759
H         -5.23454        1.44864        0.80341
H         -3.18091        2.56795        0.02883
H         -5.29566       -1.01765        1.03669
H         -3.30788       -2.36738        0.46125
N         -0.86981        1.42723       -0.55531
C          0.41987        0.86162       -0.38250
C          0.61845       -0.53153       -0.28090
S         -0.70884       -1.70981       -0.51066
C          1.51495        1.72141       -0.24426
C          2.78777        1.21754        0.01020
C          2.98949       -0.17039        0.12224
C          1.90275       -1.03376       -0.03393
H          1.37594        2.79319       -0.30752
H          3.60250        1.91819        0.12885
H          2.05503       -2.10345        0.03828
H         -0.92741        2.45035       -0.67538
O          4.21364       -0.70080        0.37307
C          5.36283        0.04251        0.55103
H          6.21432       -0.64114        0.74066
H          5.24969        0.72155        1.42403
H          5.57622        0.63232       -0.36588
