26
energy:      -954.3851747690
C         -4.00427        0.79531        0.47562
C         -4.01445       -0.59385        0.59574
C         -2.84340        1.45155        0.07208
C         -1.67315        0.72604       -0.21018
C         -1.69009       -0.68117       -0.11077
C         -2.86599       -1.32985        0.29735
H         -4.89174        1.36783        0.70976
H         -2.83846        2.53273        0.00767
H         -4.91424       -1.10234        0.91453
H         -2.88627       -2.40819        0.38115
N         -0.49066        1.44187       -0.52835
C          0.80066        0.89173       -0.30906
C          1.01862       -0.49586       -0.23026
S         -0.27711       -1.68802       -0.52929
C          1.87347        1.77342       -0.10859
C          3.14462        1.28290        0.19502
C          3.36337       -0.09981        0.26937
C          2.30293       -0.98081        0.05005
H          1.71817        2.84401       -0.15738
H          3.95395        1.97965        0.35789
H          2.46653       -2.05045        0.10699
H         -0.56532        2.46737       -0.63930
C          4.72949       -0.63295        0.57977
H          5.41943        0.17922        0.89420
H          5.14121       -1.11707       -0.32947
H          4.67290       -1.38105        1.39908
