36
energy:      -765.9745127790
C         -5.07002       -0.14883        0.23556
C         -4.61714        1.27278        0.12267
C         -3.13800        1.50450        0.04769
C         -4.17719       -1.14538        0.28217
N         -2.77042       -0.87769        0.22971
C         -2.27637        0.46663        0.10100
C         -0.79307        0.64754       -0.02835
N         -0.01009       -0.50889       -0.36554
C         -1.81996       -1.97627        0.34079
C         -0.68993       -1.76408       -0.66506
C         -0.19101        1.83450        0.18109
C          1.29504        1.96748        0.06557
C          2.06565        0.74832       -0.33684
C          1.41122       -0.42117       -0.52171
H         -6.13092       -0.36759        0.28512
H         -2.80108        2.52327       -0.08238
H         -0.74613        2.71943        0.46294
H          1.79607        2.94010        0.23868
H         -5.33678        2.11313        0.04517
H         -4.53298       -2.16640        0.37808
H          1.95274       -1.30916       -0.82752
H          0.02219       -2.61871       -0.64794
H         -1.14078       -1.70681       -1.67962
H         -2.31895       -2.95676        0.18070
H         -1.37106       -1.97575        1.35841
O          3.40742        0.88833       -0.53852
C          4.29976       -0.10485       -0.91192
C          4.64982       -1.02576        0.26327
H          5.23402        0.37954       -1.26603
H          3.89563       -0.67686       -1.77346
C          5.35972       -0.26207        1.37837
H          3.73802       -1.51016        0.66988
H          5.33108       -1.82179       -0.10639
H          5.62971       -0.96258        2.19600
H          4.70265        0.53276        1.79082
H          6.29217        0.20231        0.99004
