35
energy:      -690.8185704860
C          3.54545       -0.42495        0.02444
C          2.84014       -1.60000        0.57483
C          2.84123        0.60672       -0.47293
N          1.41855        0.60580       -0.45847
C          1.37521       -1.59472        0.53103
C          0.72159       -0.56066        0.02183
C         -0.72159       -0.56066       -0.02183
N         -1.41855        0.60580        0.45847
C         -1.37521       -1.59471       -0.53104
C         -2.84014       -1.60000       -0.57483
C         -3.54545       -0.42495       -0.02444
C         -2.84122        0.60672        0.47293
C          0.72117        1.68634       -1.06213
C          0.00000        2.53021       -0.00000
H         -0.01516        1.27895       -1.78835
H          1.40301        2.33504       -1.63914
C         -0.72117        1.68634        1.06212
H         -0.71941        3.19027       -0.52717
H          0.71941        3.19027        0.52717
H         -1.40301        2.33504        1.63914
H          0.01516        1.27895        1.78835
H         -0.85093       -2.44025       -0.93844
H         -3.38256       -2.46095       -0.98394
H         -3.32364        1.46146        0.87783
H          0.85094       -2.44024        0.93844
H          3.38256       -2.46095        0.98394
H          3.32364        1.46146       -0.87783
C          5.03377       -0.41667        0.03939
H          5.40641       -0.53747        1.07857
H          5.41565        0.52455       -0.37578
H          5.42245       -1.26679       -0.55542
C         -5.03377       -0.41667       -0.03939
H         -5.40642       -0.53751       -1.07856
H         -5.41565        0.52456        0.37575
H         -5.42245       -1.26677        0.55546
