22
energy:     -2449.8663576000
C          0.00000        2.82872        1.27443
C         -0.00000        3.57094        0.00138
C         -0.00000        1.48742        1.28189
C          0.00000        0.69161        0.00253
C          0.00000        1.48678       -1.27823
C          0.00000        2.82790       -1.27070
H          0.00000        1.01501        2.24906
H         -0.00000        1.01394       -2.24301
C         -0.00000       -0.69161        0.00253
C          0.00000       -1.48742        1.28189
C         -0.00000       -2.82872        1.27443
C          0.00000       -3.57094        0.00138
C         -0.00000       -2.82790       -1.27070
C         -0.00000       -1.48678       -1.27823
H          0.00000       -1.01394       -2.24301
H         -0.00000       -1.01501        2.24906
O          0.00000        4.79228        0.00097
O         -0.00000       -4.79228        0.00097
Cl        -0.00000        3.70441        2.80244
Cl         0.00000        3.70257       -2.80027
Cl         0.00000       -3.70441        2.80244
Cl        -0.00000       -3.70257       -2.80027
