29
energy:      -993.6671714300
C          1.11819        0.33393        3.58249
C         -0.27564        0.34634        3.70332
C          1.71139        0.01274        2.36072
C          0.92472       -0.27938        1.23837
C         -0.47673       -0.26811        1.36088
C         -1.07016        0.03202        2.58903
H          1.74895        0.56820        4.42933
H          2.79162        0.01463        2.27887
H         -2.14786        0.03948        2.68037
N          1.56994       -0.50758       -0.00651
C          0.92461       -0.27388       -1.24203
C         -0.47877       -0.26880       -1.36166
S         -1.56142       -0.69388       -0.00257
C          1.71229        0.01391       -2.36446
C          1.11725        0.33484       -3.58216
C         -0.27584        0.34722       -3.70392
C         -1.07094        0.03476       -2.59491
H          2.79118        0.01524       -2.27907
H          1.74890        0.56877       -4.43025
H         -2.14965        0.03987       -2.67997
H          2.60482       -0.56409        0.00004
C         -0.92408        0.67752       -5.01307
H         -0.18302        1.07715       -5.73756
H         -1.71811        1.43914       -4.86772
H         -1.37535       -0.24372       -5.43743
C         -0.92340        0.67737        5.01290
H         -0.18304        1.07700        5.73763
H         -1.37549       -0.24394        5.43753
H         -1.71781        1.43891        4.86759
