31
energy:     -1143.9879795100
C          1.13345        0.19782        3.57686
C         -0.26839        0.23552        3.70201
C          1.72041       -0.12227        2.35835
C          0.93052       -0.39899        1.23576
C         -0.47126       -0.37378        1.35629
C         -1.05827       -0.05999        2.58648
H          1.77761        0.42394        4.41446
H          2.80037       -0.12635        2.27746
H         -2.13901       -0.04445        2.67948
N          1.57636       -0.63367       -0.00288
C          0.92839       -0.40011       -1.24196
C         -0.47419       -0.37410       -1.36229
S         -1.56014       -0.78723       -0.00196
C          1.71743       -0.12300       -2.36457
C          1.13095        0.19850       -3.58252
C         -0.27164        0.23547       -3.70459
C         -1.06166       -0.05956       -2.59145
H          2.79845       -0.12626       -2.28329
H          1.77536        0.42537       -4.41994
H         -2.14130       -0.04376       -2.68246
H          2.60699       -0.68916       -0.00348
O         -0.88358        0.54961       -4.87372
C         -0.21807        0.85675       -6.04144
H          0.41483        1.75799       -5.89315
H         -0.95816        1.06643       -6.83810
H          0.41020       -0.00452       -6.35275
O         -0.88086        0.54744        4.86980
C         -0.21681        0.85506        6.03824
H          0.41232       -0.00564        6.35158
H         -0.95760        1.06521        6.83455
H          0.41619        1.75737        5.89140
