30
energy:      -650.3466029410
N         -0.25014        3.50041        0.00000
C          0.90804        2.79928        0.00000
C          0.89209        1.39819       -0.00000
C         -0.34258        0.71122       -0.00000
C         -1.43981        2.88208       -0.00000
C         -1.52977        1.48800       -0.00000
C          2.10564        0.69523        0.00000
C          2.10564       -0.69523       -0.00000
C         -0.34258       -0.71122        0.00000
C          0.89209       -1.39819        0.00000
C          0.90804       -2.79928       -0.00000
N         -0.25014       -3.50041       -0.00000
C         -1.52977       -1.48800        0.00000
C         -1.43981       -2.88208        0.00000
H          1.84138       -3.33550       -0.00000
H         -2.51306       -1.05653        0.00000
H         -2.34014       -3.48728       -0.00000
H          3.05493        1.22459        0.00000
H          3.05493       -1.22459       -0.00000
H         -2.34014        3.48728        0.00000
H         -2.51306        1.05653       -0.00000
H          1.84138        3.33550        0.00000
C         -0.20799        4.95105       -0.00000
H          0.83336        5.32335       -0.00000
H         -0.72287        5.33336        0.90336
H         -0.72287        5.33336       -0.90336
C         -0.20799       -4.95105        0.00000
H          0.83336       -5.32335        0.00000
H         -0.72287       -5.33336       -0.90336
H         -0.72287       -5.33336        0.90336
