36
energy:      -878.8137341600
C          2.43782        5.14266       -0.00000
C          1.13688        4.79426        0.00000
N          0.78179        3.43501       -0.00000
C          1.75022        2.42654        0.00000
C          3.48334        4.11105        0.00000
C          3.16412        2.81856       -0.00000
C         -0.56187        3.09377        0.00000
C         -0.97627        1.80396        0.00000
C         -0.02088        0.74352       -0.00000
C          1.30168        1.03142       -0.00000
C         -2.34811        1.52940       -0.00000
C         -2.81037        0.20938       -0.00000
C         -1.90265       -0.85001        0.00000
C         -0.49367       -0.60968       -0.00000
C         -2.38168       -2.09897        0.00000
C          0.34269       -1.66951        0.00000
N         -0.11244       -2.99412       -0.00000
C         -1.48647       -3.24875       -0.00000
C         -1.94260       -4.64208       -0.00000
C         -1.04051       -5.62317        0.00000
C          0.82704       -4.04537        0.00000
C          0.39703       -5.32021       -0.00000
H          2.71195        6.18385       -0.00000
H          0.35916        5.52201       -0.00000
H          4.51801        4.41237       -0.00000
H          3.88550        2.03484       -0.00000
H         -3.07458        2.33753       -0.00000
H         -3.88226        0.03342        0.00000
H         -1.27791        3.91563        0.00000
H          2.11301        0.33316       -0.00000
H          1.43286       -1.57782        0.00000
H         -3.44079       -2.35292       -0.00000
H         -2.99482       -4.81133       -0.00000
H         -1.35956       -6.65264       -0.00000
H          1.86065       -3.79951       -0.00000
H          1.11473       -6.12234       -0.00000
