24
energy:      -571.7231183880
C         -0.00000        3.50306       -0.26833
C         -0.00000        2.86990       -1.50915
C          0.00000        1.47103       -1.57576
C         -0.00000        0.71818       -0.38947
C          0.00000        2.73490        0.88370
N          0.00000        1.37486        0.81515
C          0.00000       -0.71818       -0.38947
N         -0.00000       -1.37486        0.81515
C         -0.00000        0.69317        1.98081
C          0.00000       -0.69317        1.98081
C         -0.00000       -1.47103       -1.57576
C          0.00000       -2.86990       -1.50915
C         -0.00000       -2.73490        0.88370
C          0.00000       -3.50306       -0.26833
H          0.00000        1.22130        2.92699
H         -0.00000       -1.22130        2.92699
H         -0.00000        4.58624       -0.19437
H         -0.00000        3.20594        1.85500
H         -0.00000        3.44701       -2.42273
H          0.00000        1.01682       -2.53751
H          0.00000       -3.20594        1.85500
H          0.00000       -4.58624       -0.19437
H         -0.00000       -1.01682       -2.53751
H          0.00000       -3.44701       -2.42273
