26
energy:      -572.9523800090
C          0.02262        3.52884       -0.26062
C         -0.25217        2.88203       -1.55797
C         -0.25206        1.41674       -1.59416
C          0.22851        2.78662        0.83272
N          0.20726        1.36274        0.76853
C         -0.00180        0.72008       -0.49355
C          0.00180       -0.72008       -0.49355
N         -0.20726       -1.36274        0.76853
C          0.45340        0.61673        1.95373
C         -0.45340       -0.61673        1.95373
H          0.25901        1.22293        2.85371
H          1.51814        0.29227        1.96627
H         -1.51814       -0.29227        1.96627
H         -0.25901       -1.22293        2.85371
C          0.25206       -1.41674       -1.59416
C          0.25217       -2.88203       -1.55797
C         -0.02262       -3.52884       -0.26062
C         -0.22851       -2.78662        0.83272
H          0.04147        4.60001       -0.22505
H          0.42545        3.23602        1.77687
H         -0.04147       -4.60001       -0.22505
H         -0.42545       -3.23602        1.77687
H         -0.44498        3.46195       -2.46648
H         -0.47611        0.94729       -2.52680
H          0.47611       -0.94729       -2.52680
H          0.44498       -3.46195       -2.46648
