28
energy:      -649.1303957900
C          0.01157        3.48228        0.04858
C         -0.03873        2.80921        1.26927
C         -0.02005        1.40707        1.29123
C          0.10551        2.75785       -1.13908
N          0.11678        1.39229       -1.11929
C          0.01903        0.70452        0.06715
C         -0.02357        0.70068        2.50349
C          0.02357       -0.70068        2.50349
C          0.02005       -1.40707        1.29123
C         -0.01903       -0.70452        0.06715
C          0.03873       -2.80921        1.26927
C         -0.01157       -3.48228        0.04858
C         -0.10551       -2.75785       -1.13908
N         -0.11678       -1.39229       -1.11929
C          0.37522        0.65908       -2.36577
C         -0.37522       -0.65908       -2.36577
H          1.46030        0.41781       -2.39903
H          0.12271        1.25994       -3.26638
H         -0.12271       -1.25994       -3.26638
H         -1.46030       -0.41781       -2.39903
H         -0.07805        3.37678        2.19064
H          0.00973        4.56387        0.02181
H          0.19863        3.29147       -2.07552
H          0.07805       -3.37678        2.19064
H         -0.00973       -4.56387        0.02181
H         -0.19863       -3.29147       -2.07552
H         -0.03931        1.23111        3.44747
H          0.03931       -1.23111        3.44747
