40
energy:      -881.2042930080
C         -5.71952        0.19443       -0.07076
C         -4.90376        0.92862        0.70540
C         -3.45187        0.70693        0.65442
C         -5.21336       -0.85470       -1.00579
C         -3.91135       -1.11047       -1.11009
C         -2.96378       -0.34155       -0.27322
C         -2.59354        1.40017        1.41042
C         -1.15985        1.10374        1.33617
C         -0.70098        0.13376        0.53222
N         -1.55469       -0.61199       -0.32757
C          0.70097       -0.13379        0.53221
C          1.15984       -1.10380        1.33612
C          2.59353       -1.40023        1.41037
N          1.55469        0.61200       -0.32753
C          2.96378        0.34157       -0.27317
C          3.45187       -0.70696        0.65441
C          4.90376       -0.92865        0.70539
C          5.71952       -0.19442       -0.07074
C          3.91135        1.11053       -1.11001
C          5.21337        0.85475       -1.00572
C          1.05128        1.60217       -1.25570
H          1.48263        2.58713       -0.98762
H         -0.04931        1.69266       -1.24260
H          1.34674        1.32046       -2.28779
C         -1.05127       -1.60211       -1.25578
H         -1.48262       -2.58708       -0.98775
H          0.04932       -1.69261       -1.24268
H         -1.34673       -1.32035       -2.28786
H         -2.93387        2.16398        2.09424
H         -0.46832        1.66706        1.95687
H          0.46831       -1.66715        1.95680
H          2.93385       -2.16408        2.09416
H         -5.90671       -1.41849       -1.60698
H         -3.56412       -1.87741       -1.79290
H         -6.78990        0.35863       -0.02002
H         -5.29516        1.67916        1.38030
H          3.56413        1.87750       -1.79279
H          5.90672        1.41857       -1.60687
H          5.29515       -1.67923        1.38025
H          6.78990       -0.35863       -0.02000
