22
energy:      -495.6080304010
N          0.00000        0.00000       -3.49979
C         -0.45533        1.14320       -2.81880
C         -0.47248        1.18413       -1.48766
C          0.45533       -1.14320       -2.81880
C          0.47248       -1.18413       -1.48766
C         -0.00000       -0.00000       -0.74255
C          0.00000       -0.00000        0.74255
C          0.47248        1.18413        1.48766
C         -0.47248       -1.18413        1.48766
C         -0.45533       -1.14320        2.81879
C          0.45533        1.14320        2.81879
N         -0.00000        0.00000        3.49979
H         -0.78432       -1.97912        3.40991
H         -0.81692       -2.04825        0.95238
H          0.81692        2.04825        0.95238
H          0.78432        1.97912        3.40991
H          0.81692       -2.04825       -0.95238
H          0.78432       -1.97912       -3.40991
H         -0.78432        1.97912       -3.40991
H         -0.81692        2.04825       -0.95238
H          0.00000        0.00000       -4.52888
H         -0.00000        0.00000        4.52888
