35
energy:      -819.8672486860
C         -4.79646       -1.29854       -0.15833
C         -4.80419        0.07272       -0.76316
C         -3.53378        0.85313       -0.66913
C         -3.68450       -1.78905        0.40575
N         -2.48473       -1.00936        0.45493
C         -2.44174        0.31859       -0.08028
C         -1.15143        1.04910       -0.01196
N          0.04731        0.26543        0.10313
C         -1.29421       -1.53862        1.09540
C         -0.07192       -1.19224        0.24223
H         -1.37409       -2.63473        1.26287
H         -1.16005       -1.04509        2.08587
H         -0.19063       -1.65975       -0.76082
H          0.80909       -1.62872        0.75587
C         -1.10202        2.39513       -0.01165
C          0.19585        3.10662        0.13785
C          1.42251        2.26005        0.14818
C          1.33874        0.91382        0.11282
H         -5.70198       -1.89309       -0.17700
H         -3.70646       -2.77905        0.84807
H          2.38165        2.76555        0.11901
H         -3.50700        1.83832       -1.11873
H         -2.00079        2.99512       -0.06582
H         -5.69438        0.49545       -1.26956
H          0.25005        4.21468        0.11124
C          2.58676        0.12034       -0.02143
N          2.58156       -0.98909       -0.81269
C          3.78155        0.51802        0.59535
C          3.69829       -1.72260       -1.03538
C          4.90098       -1.35770       -0.43064
C          4.93625       -0.23398        0.39772
H          3.65215       -2.58654       -1.68594
H          5.79352       -1.93969       -0.60199
H          5.85857        0.05723        0.87995
H          3.81535        1.39050        1.23746
