27
energy:     -1489.0109677300
C         -3.36851        1.06133        0.10761
C         -3.35110       -0.34444        0.13109
C         -2.20042        1.76531       -0.11681
C         -0.99666        1.09225       -0.33166
C         -0.98084       -0.31383       -0.32307
C         -2.15395       -1.02217       -0.08137
H         -4.27979        1.61726        0.26775
H         -2.22097        2.84733       -0.10724
H         -2.13949       -2.10263       -0.07002
N          0.17375        1.85104       -0.49082
C          1.45405        1.33837       -0.19585
C          1.71667       -0.04178       -0.18162
S          0.49013       -1.24774       -0.68911
C          2.46030        2.24351        0.14585
C          3.72500        1.78751        0.50520
C          3.98690        0.42041        0.52474
C          2.99033       -0.49598        0.18036
H          2.24848        3.30461        0.15408
H          4.49058        2.49880        0.77207
H          4.96857        0.06583        0.80133
H          0.07068        2.88061       -0.53950
Cl         3.36168       -2.21034        0.20897
O         -4.46948       -1.07003        0.34224
C         -5.70361       -0.50270        0.54027
H         -6.44694       -1.30502        0.67910
H         -5.98093        0.11192       -0.34458
H         -5.67129        0.13832        1.44623
