32
energy:      -651.5259769730
C         -3.82752       -0.08672       -0.17725
C         -3.26406       -1.29910       -0.80172
C         -3.03208        0.79163        0.43529
N         -1.62518        0.60157        0.48797
C         -1.81214       -1.49312       -0.69109
C         -1.06499       -0.59759       -0.06071
C          0.35172       -0.80318        0.06268
N          1.23170        0.26514       -0.31687
C          0.80170       -1.94862        0.55091
C          2.24291       -2.17483        0.69087
C          3.13889       -1.08473        0.26900
C          2.65412        0.05816       -0.21849
C         -0.81775        1.54124        1.18529
C          0.05608        2.33576        0.20445
H         -0.17933        0.99378        1.91147
H         -1.43438        2.24114        1.77640
C          0.69219        1.44876       -0.87767
H          0.83580        2.86037        0.79109
H         -0.54383        3.11423       -0.30742
H          1.42939        2.04365       -1.43615
H         -0.07046        1.16744       -1.63455
H          0.13582       -2.72130        0.87288
H          2.63279       -3.11884        1.08040
H          4.18970       -1.25937        0.36159
H         -3.89414       -2.03847       -1.30246
H         -1.38610       -2.36307       -1.14360
H         -4.88710        0.06156       -0.23520
H         -3.41902        1.66920        0.88826
C          3.56872        1.14501       -0.64981
H          3.48394        1.29291       -1.74385
H          4.59150        0.87143       -0.40075
H          3.30976        2.10003       -0.14407
