30
energy:      -650.3379528680
C          3.48414        0.61184        0.00000
N          2.77411       -0.53229        0.00000
C          1.40301       -0.50958        0.00000
C          0.71177        0.72228       -0.00000
C          2.85796        1.84744       -0.00000
C          1.47488        1.91076       -0.00000
C          0.68152       -1.71316        0.00000
C         -0.68152       -1.71316        0.00000
C         -1.40301       -0.50958        0.00000
C         -0.71177        0.72228       -0.00000
N         -2.77411       -0.53229       -0.00000
C         -1.47488        1.91076       -0.00000
C         -3.48414        0.61184        0.00000
C         -2.85796        1.84744       -0.00000
H          3.45494        2.75679       -0.00000
H          1.02283        2.88916       -0.00000
H          4.57194        0.57128       -0.00000
H          1.18334       -2.67445        0.00000
H         -1.18334       -2.67445        0.00000
H         -1.02283        2.88916        0.00000
H         -3.45494        2.75679        0.00000
H         -4.57194        0.57128       -0.00000
C          3.51424       -1.78694        0.00000
H          4.60587       -1.61075        0.00000
H          3.26259       -2.37306       -0.90898
H          3.26259       -2.37306        0.90898
C         -3.51424       -1.78694       -0.00000
H         -3.26259       -2.37306       -0.90898
H         -4.60587       -1.61075       -0.00000
H         -3.26259       -2.37306        0.90898
