32
energy:      -651.5376343520
C         -3.51796        0.60853       -0.17514
C         -2.83049        1.87626       -0.47492
C         -1.37134        1.89022       -0.38177
C         -2.82281       -0.49698        0.10551
N         -1.38632       -0.45870        0.13237
C         -0.71481        0.78654       -0.05408
C          0.71481        0.78654        0.05408
N          1.38632       -0.45870       -0.13236
C         -0.63962       -1.63289        0.42383
C          0.63962       -1.63289       -0.42383
H         -1.18898       -2.55063        0.19499
H         -0.36502       -1.64748        1.50461
H          0.36502       -1.64748       -1.50461
H          1.18898       -2.55063       -0.19499
C          1.37134        1.89022        0.38176
C          2.83049        1.87626        0.47492
C          3.51796        0.60853        0.17514
C          2.82281       -0.49698       -0.10551
H         -4.58639        0.61641       -0.21430
H          4.58639        0.61641        0.21430
H         -0.87373        2.80550       -0.60408
H          0.87373        2.80550        0.60409
H          3.38235        2.78456        0.72734
H         -3.38235        2.78456       -0.72734
C          3.52135       -1.77599       -0.40404
H          3.18419       -2.18062       -1.38349
H          3.29006       -2.52098        0.38159
H          4.59444       -1.60438       -0.43257
C         -3.52135       -1.77599        0.40404
H         -4.59444       -1.60438        0.43257
H         -3.18418       -2.18062        1.38349
H         -3.29006       -2.52098       -0.38159
