18
energy:      -622.0534437830
C         -2.25535        1.22518        0.01669
C         -1.38759        2.31318        0.03357
C         -1.76595       -0.09199       -0.00510
C         -0.34994       -0.31231       -0.00778
C          0.50887        0.80431        0.00004
C         -0.01184        2.10854        0.01926
C          0.31548       -1.65817       -0.00674
N          1.73031       -1.75406        0.05782
C          1.96723        0.57395       -0.01369
N          2.47684       -0.75106        0.04807
O          2.74715        1.51111       -0.08643
O         -0.32603       -2.69446       -0.05517
N         -2.70882       -1.15435       -0.03293
H         -3.72049       -0.94434       -0.02971
H         -2.45020       -2.13991       -0.07292
H         -3.32386        1.40533        0.02477
H         -1.78546        3.32135        0.05700
H          0.64950        2.96674        0.03134
