27
energy:      -648.1268634550
C          0.51570        1.79203        0.49651
C         -2.53294       -2.13648        0.25718
C         -1.07134       -1.98649        0.25399
C          2.79582        0.94011        0.20948
N          1.39389        0.70434        0.22504
H          3.13258        1.93302        0.40488
C         -3.33578       -0.92878       -0.00380
C          0.91667       -0.62624        0.00787
C         -0.51980       -0.79321        0.02521
C          3.66554       -0.04722       -0.02412
C         -2.74866        0.25107       -0.18764
H         -4.40391       -1.03053       -0.03223
C          1.72865       -1.62939       -0.26805
C          3.17875       -1.41482       -0.29570
N         -1.32694        0.38219       -0.15650
H          4.72342        0.12051       -0.02934
C         -0.71882        1.65798       -0.41062
H         -3.30731        1.12788       -0.38115
O         -1.61160        2.73632       -0.24704
H         -0.38457        1.68529       -1.46255
H         -1.67445        2.97565        0.71412
H          1.01600        2.75474        0.31299
H          0.20360        1.74067        1.56539
H         -2.99155       -3.11686        0.42729
H         -0.49305       -2.85865        0.45551
H          3.86183       -2.24078       -0.51145
H          1.37633       -2.61273       -0.49723
