34
energy:      -802.6020579020
C         -3.71709       -2.41139        0.12479
C         -4.35426       -1.18147        0.12035
C         -2.32788       -2.46154        0.08721
C         -3.60614       -0.00830        0.07585
C         -2.18690       -0.07134        0.03650
N         -1.58625       -1.31219        0.04095
C         -1.36727        1.10221       -0.02420
C         -0.23107       -1.42317        0.00861
C          0.57997       -0.29103       -0.02155
N          0.01433        0.96395       -0.05606
C         -1.92459        2.40707       -0.06516
C         -1.09996        3.51874       -0.16673
C          0.81341        2.08234       -0.16762
C          0.27104        3.35727       -0.22682
H         -4.29507       -3.32561        0.15808
H         -1.84612       -3.43397        0.09283
H         -5.43534       -1.13338        0.14926
H         -4.15427        0.91554        0.07387
H         -2.98306        2.59383       -0.03605
H         -1.52781        4.51255       -0.21106
H          1.88924        2.00732       -0.23547
H          0.91754        4.21904       -0.32470
H          0.23535       -2.40325        0.03192
C          2.04979       -0.50367        0.00860
C          2.81907        0.02323        1.06073
C          2.67695       -1.25375       -0.99820
C          4.06107       -1.44804       -0.96685
C          4.19858       -0.19150        1.09905
C          4.82004       -0.92079        0.08158
H          2.34424        0.58461        1.85707
H          4.78463        0.20680        1.91712
H          5.89033       -1.07910        0.10814
H          2.09637       -1.66318       -1.81554
H          4.54406       -2.00855       -1.75643
