36
energy:      -803.8242630380
C          3.75496       -2.36454       -0.02421
C          4.39260       -1.07378        0.30359
C          3.53775        0.11731        0.30412
C          2.44226       -2.42139       -0.27534
N          1.63242       -1.25082       -0.25261
C          2.25505        0.01255        0.00620
C          1.37919        1.15829        0.00512
N         -0.02813        0.91723        0.15898
C          0.24219       -1.36051       -0.53872
C         -0.51258       -0.41480        0.38294
H         -0.09988       -2.39857       -0.38699
H          0.07783       -1.08231       -1.60046
C          1.86257        2.38191       -0.20071
C          0.96648        3.54251       -0.18850
C         -0.46302        3.28679        0.06029
C         -0.91299        2.03920        0.21615
H          4.37175       -3.24042       -0.04303
H          1.96672       -3.34511       -0.50974
H         -1.12561        4.12812        0.09982
H         -1.93722        1.85465        0.39425
H          3.99432        1.04685        0.56985
H          2.89413        2.56441       -0.39618
H          5.45955       -0.99587        0.53569
H          1.36168        4.55371       -0.34086
C         -2.01173       -0.57469        0.18014
H         -0.28125       -0.69041        1.43125
C         -2.82727       -0.84231        1.28890
C         -2.59467       -0.44304       -1.09396
C         -3.97009       -0.59871       -1.24937
C         -4.20234       -0.98528        1.12760
C         -4.77363       -0.87069       -0.14036
H         -2.39485       -0.92402        2.27605
H         -4.82357       -1.19238        1.98665
H         -5.83714       -0.99152       -0.26426
H         -1.98769       -0.23050       -1.96251
H         -4.41093       -0.51100       -2.23001
