32
energy:      -651.5225701800
C         -3.70227       -0.03165       -0.08693
C         -3.27576       -1.37852        0.34193
C         -1.83656       -1.65865        0.34113
C         -2.78991        0.88324       -0.42811
N         -1.40012        0.58437       -0.40577
C         -0.98164       -0.72964       -0.04846
C          0.44100       -0.95884       -0.05708
N          1.30383        0.18909        0.00910
C         -0.46517        1.58388       -0.79702
C          0.76643        1.51869        0.10262
H         -0.93119        2.58302       -0.74789
H         -0.15709        1.38676       -1.84541
C          0.92045       -2.19670       -0.17439
C          2.36520       -2.43677       -0.17494
C          3.23961       -1.26062       -0.04742
C          2.71997       -0.03567        0.02822
H         -4.75189        0.18056       -0.10406
H          4.29826       -1.41935       -0.02631
H         -1.52842       -2.62334        0.68050
H          0.28895       -3.04434       -0.28813
H          2.76189       -3.45413       -0.25727
H         -3.99319       -2.14436        0.64763
H         -3.08003        1.86148       -0.73750
H          3.35938        0.79480        0.11370
C          1.73949        2.60709       -0.40151
H          2.11835        2.34893       -1.41464
H          2.59723        2.75067        0.28184
H          1.22224        3.57867       -0.46040
C          0.41669        1.81410        1.57602
H         -0.30837        1.08396        1.98562
H         -0.00908        2.82813        1.68328
H          1.33088        1.76035        2.20256
