29
energy:     -1068.6175192700
C         -4.65042        0.27807       -0.60014
C         -3.64158        1.15727       -0.20041
C         -2.37265        0.67252        0.15433
C         -2.13827       -0.71420        0.13202
C         -4.40558       -1.09339       -0.63806
C         -3.15671       -1.58923       -0.26373
N         -1.34623        1.60189        0.47028
C          0.03356        1.29080        0.31883
C          0.51117       -0.03970        0.30410
S         -0.58996       -1.42197        0.65796
C          0.93012        2.34873        0.11067
C          2.27765        2.10984       -0.12872
C          2.76556        0.80307       -0.16213
C          1.88578       -0.28805        0.06037
C          4.12591        0.56711       -0.41306
C          2.41052       -1.59991        0.02572
C          4.62082       -0.73758       -0.44502
C          3.76575       -1.81596       -0.22421
H         -5.61819        0.66409       -0.89117
H         -3.83845        2.22207       -0.19482
H         -5.18442       -1.77570       -0.95241
H         -2.97812       -2.65713       -0.27940
H          0.57143        3.37130        0.11036
H          2.94140        2.94906       -0.29954
H          4.80449        1.39385       -0.58429
H          5.67089       -0.91206       -0.63870
H          1.78303       -2.46593        0.18852
H          4.15473       -2.82644       -0.25095
H         -1.60853        2.59910        0.52410
