27
energy:     -1311.3352845000
C          4.95737       -1.31819        0.01520
C          5.25115        0.04996        0.02189
C          3.63544       -1.74425        0.00232
C          2.59735       -0.82282       -0.00366
C          2.89419        0.56616        0.00326
C          4.22105        0.98120        0.01573
H          5.75864       -2.04212        0.01993
H          6.27903        0.38110        0.03178
H          3.39840       -2.80091       -0.00298
H          4.43788        2.04198        0.02076
C          1.20181       -1.27720       -0.01705
C          0.11708       -0.29627       -0.01812
C          0.41704        1.09753       -0.01209
C          1.81044        1.55047       -0.00276
O          0.95169       -2.49049       -0.02775
O          2.07611        2.75997       -0.00087
C         -1.20818       -0.71246       -0.02943
C         -2.20306        0.24032       -0.04394
C         -1.93441        1.59621       -0.03319
C         -0.62352        2.01887       -0.02118
H         -1.44783       -1.76631       -0.03933
H         -0.38973        3.07792       -0.02309
H         -2.75257        2.30772       -0.04623
S         -3.82339       -0.26731       -0.02883
O         -4.76258        0.79973       -0.64008
O         -4.27986       -0.52226        1.59024
O         -4.01931       -1.58652       -0.81171
