34
energy:     -1332.4404610400
C          1.19450        3.08723       -1.45620
C          0.03924        3.74145       -1.01175
C          1.38844        1.72827       -1.17371
C          0.41527        1.00628       -0.45474
C         -0.73644        1.68912       -0.01746
C         -0.92352        3.04347       -0.28399
H          1.92958        3.62914       -2.03594
H          2.27090        1.23498       -1.55806
H         -0.11255        4.78812       -1.24115
H         -1.81865        3.54631        0.05539
N          0.54888       -0.42482       -0.23960
C         -0.61008       -1.27439       -0.40224
C         -1.87288       -0.83865        0.05494
S         -1.92488        0.73169        0.84866
C         -0.53095       -2.52863       -1.04219
C         -1.68718       -3.29376       -1.24258
C         -2.92811       -2.83157       -0.79576
C         -3.02024       -1.60812       -0.13772
H          0.40981       -2.89428       -1.42598
H         -1.62064       -4.24300       -1.76298
H         -3.98230       -1.24286        0.20558
H         -3.81903       -3.42112       -0.96183
O         -3.32165        1.36697        0.89224
O         -1.51283        0.58942        2.32123
C          1.75177       -0.94193        0.16651
O          2.76232       -0.09828        0.51031
O          1.87479       -2.14436        0.36523
C          3.94006       -0.50677        1.11353
C          4.92571       -0.97936        0.05972
H          4.37663        0.35842        1.65451
H          3.74395       -1.30333        1.86683
H          4.50566       -1.84312       -0.49502
H          5.87414       -1.28182        0.54745
H          5.12583       -0.14960       -0.65011
