41
energy:     -1089.0829596100
C         -1.19659        3.11633       -0.25481
C          0.14858        3.29979       -0.12059
C         -1.78897        1.75510       -0.30115
C         -0.87472        0.60425       -0.14943
C          0.48100        0.79656       -0.01726
C          1.06597        2.13499       -0.00623
H         -1.86325        3.96598       -0.34903
O         -2.97952        1.60769       -0.53408
O          2.27615        2.30043        0.06695
C          1.07680       -0.46085        0.01247
C         -1.07992       -0.76906       -0.17118
N          0.10469       -1.39230       -0.07383
C         -2.35357       -1.49186       -0.25208
O         -3.44450       -0.98009        0.34245
O         -2.40340       -2.58851       -0.80033
C         -4.66777       -1.58762        0.24516
C         -5.68684       -0.73354        0.96519
H         -4.91964       -1.65609       -0.83263
H         -4.64053       -2.61872        0.67320
H         -5.44559       -0.68146        2.04769
H         -5.66911        0.29295        0.54067
H         -6.69412       -1.17126        0.83035
C          0.29566       -2.83169        0.03912
H          0.15048       -3.31033       -0.94517
H          1.29510       -3.05702        0.45271
H         -0.44649       -3.23595        0.76919
C          0.74625        4.67119       -0.09978
H          1.30651        4.80350        0.84879
H          1.46521        4.76639       -0.94106
H         -0.03023        5.45503       -0.18653
C          2.50485       -0.78245        0.07289
C          3.31689       -0.30030        1.10107
C          3.06189       -1.63951       -0.90600
C          4.40980       -1.98284       -0.84534
C          5.21324       -1.51195        0.20352
C          4.65830       -0.66472        1.16930
H          2.89130        0.33623        1.86908
H          5.27780       -0.30528        1.97656
H          4.83509       -2.63251       -1.60790
H          6.25678       -1.78581        0.24417
H          2.44357       -2.01755       -1.72041
