26
energy:      -668.5841596910
C          3.09391       -0.14524        0.03226
C          2.68215       -1.43728        0.01906
C          2.11072        0.97270        0.01986
H          4.15376        0.08409        0.06050
C          0.68259        0.64030        0.00741
C          0.26261       -0.67636       -0.00597
C          1.23082       -1.78365       -0.01247
H          3.41997       -2.23277        0.03032
C         -0.45981        1.43093       -0.01121
N         -1.52660        0.61445       -0.01799
C         -1.12008       -0.63939       -0.01550
O          2.49978        2.13767        0.03351
O          0.86587       -2.94823       -0.02838
C         -0.56660        2.92393       -0.02196
H          0.42621        3.40808       -0.00178
H         -1.13602        3.25053        0.87230
H         -1.10910        3.25725       -0.93127
C         -2.95038        0.77090       -0.11204
C         -3.42455       -0.66608        0.21914
H         -3.19168        1.05596       -1.15616
H         -3.33860        1.51273        0.61643
C         -2.23615       -1.61999       -0.10664
H         -4.41213       -0.94380       -0.20173
H         -3.52051       -0.68604        1.33213
H         -2.30334       -1.99445       -1.14941
H         -2.19208       -2.46503        0.61645
