32
energy:      -822.0807039840
C         -3.23433       -1.89699        0.18340
C         -2.09921       -2.63200        0.20381
C         -3.18591       -0.41853        0.06741
H         -4.19798       -2.39477        0.26011
C         -1.86081        0.23520       -0.01088
C         -0.76176       -1.98331        0.10649
H         -2.16650       -3.71150        0.29866
C         -0.70561       -0.51038       -0.01429
C         -1.48819        1.57166       -0.09326
C          0.35636        0.38689       -0.07397
N         -0.13834        1.65606       -0.12893
O         -4.22137        0.22941        0.05312
O          0.25727       -2.65243        0.14517
C         -2.39544        2.76669       -0.15063
H         -3.46540        2.49944       -0.07721
H         -2.24018        3.29475       -1.11437
H         -2.14912        3.45630        0.68422
C          0.61912        2.89928       -0.26445
H          0.20327        3.50080       -1.09920
H          1.67842        2.70632       -0.52483
H          0.56110        3.47800        0.67955
C          1.80641        0.08023       -0.02889
C          2.37942       -0.86453       -0.89446
C          2.62944        0.76292        0.88612
C          4.00145        0.51032        0.93015
C          3.76098       -1.09764       -0.86100
C          4.56890       -0.41331        0.05161
H          1.76784       -1.38929       -1.61705
H          4.20695       -1.80512       -1.54719
H          5.63605       -0.59384        0.07799
H          2.20308        1.48123        1.57530
H          4.62373        1.03645        1.64474
