35
energy:      -935.5840141960
C          2.82257       -1.92530        0.04341
C          3.53447       -0.76300        0.09375
C          1.33232       -1.91593       -0.01531
C          0.65640       -0.60738       -0.07816
C          2.83384        0.55589        0.10409
C          1.37748        0.56018       -0.00399
C         -0.68849       -0.22912       -0.14982
C          0.47254        1.59908       -0.03525
N         -0.74912        1.11126       -0.11576
O          0.70559       -2.96215        0.01762
O          3.45805        1.60326        0.17635
C         -1.77601        2.12148       -0.09361
C         -0.94262        3.39930       -0.34336
H         -2.24590        2.11291        0.91117
H         -2.53484        1.97569       -0.89600
C          0.51705        3.06994        0.08261
H         -1.37537        4.34157        0.05072
H         -0.90007        3.49747       -1.45454
H          0.69872        3.33336        1.14545
H          1.24966        3.56856       -0.58911
C         -1.88475       -1.06397       -0.24531
O         -1.82029       -2.21882       -0.63640
O         -3.06971       -0.51270        0.10833
C         -4.26763       -1.17235        0.04122
C         -5.35483       -0.29661        0.64128
H         -4.20693       -2.11882        0.61947
H         -4.49823       -1.39197       -1.02357
H         -5.12891       -0.08325        1.70965
H         -6.32644       -0.82749        0.57829
H         -5.42455        0.66525        0.08988
C          5.03504       -0.78218        0.13422
H          5.43900       -1.81529        0.11033
H          5.38067       -0.27755        1.05994
H          5.42665       -0.22593       -0.74483
H          3.33702       -2.88327        0.04682
