39
energy:      -938.7275705180
C         -3.27121       -0.68486       -0.05232
C         -2.43591       -1.77995       -0.06965
C         -2.69900        0.70152       -0.00614
C         -1.24473        0.85331        0.02148
C         -0.39770       -0.23487        0.01374
C         -0.94345       -1.60045       -0.03908
O         -3.42153        1.68707       -0.00334
O         -0.19834       -2.56691       -0.09188
C         -0.44490        1.97150        0.04638
N          0.82334        1.61720        0.01812
C          0.90568        0.27093       -0.00321
C         -3.00171       -3.18231       -0.12649
H         -3.60825       -3.30994       -1.04699
H         -3.63217       -3.37378        0.76615
H         -2.20343       -3.95311       -0.14443
C         -4.77517       -0.85838       -0.08599
H         -5.10950       -1.44323        0.79608
H         -5.07822       -1.38326       -1.01583
H         -5.30640        0.11553       -0.06289
C          2.20221       -0.44722       -0.02853
C          2.42358       -1.57686        0.77437
C          3.24786        0.04317       -0.82976
C          4.49285       -0.58576       -0.82878
C          4.71275       -1.69912       -0.01513
C          3.68001       -2.19249        0.78619
H          1.64564       -1.95583        1.42478
H          5.68528       -2.17195       -0.00448
H          3.85812       -3.04713        1.42542
H          3.10021        0.89862       -1.46770
H          5.28809       -0.20390       -1.45489
C         -0.64923        3.44023        0.01453
C          0.78688        3.88101        0.42202
H         -1.39326        3.82714        0.74365
H         -0.89717        3.72852       -1.02573
C          1.73195        2.73514       -0.00195
H          0.78257        3.82911        1.53818
H          1.09961        4.90736        0.15139
H          2.56807        2.62728        0.72395
H          2.09974        2.87142       -1.03922
