29
energy:      -707.8661919570
C          2.10935        0.92785       -0.00096
C          2.43327       -0.40852        0.00738
C          0.66974        1.36598       -0.02612
C         -0.36533        0.32701       -0.01923
C          1.36384       -1.45454        0.00042
C         -0.02585       -1.00461       -0.01026
C         -1.74299        0.37796       -0.02181
C         -1.20149       -1.72624       -0.02186
N         -2.21878       -0.84960       -0.01899
H         -1.31452       -2.80145       -0.03959
C          3.87416       -0.86177        0.03844
C          3.18374        1.98448        0.01278
H          3.79704        1.88396        0.92940
H          2.73771        2.99737        0.00295
H          3.82583        1.87845       -0.88626
H          4.40296       -0.48763       -0.86121
H          3.94589       -1.96704        0.04676
H          4.37183       -0.47892        0.95470
C         -2.80022        1.41966       -0.09449
C         -4.03942        0.52845        0.23296
H         -2.86127        1.80229       -1.13463
H         -2.69914        2.25697        0.62946
C         -3.64352       -0.92956       -0.10607
H         -5.00128        0.85519       -0.20809
H         -4.15060        0.55378        1.34404
H         -3.90736       -1.19123       -1.15135
H         -4.06299       -1.66278        0.61430
O          0.36142        2.54488       -0.04394
O          1.62056       -2.64608        0.01383
