38
energy:      -900.6495541540
C          3.16144       -0.73933        0.06816
C          2.23982       -1.75509        0.08818
C          2.71666        0.68570       -0.01432
C          1.27406        0.97018       -0.05150
C          0.34965       -0.04108       -0.05660
C          0.77118       -1.44804        0.01460
O          3.53170        1.59321       -0.03458
O         -0.05945       -2.34286        0.04393
C          0.57974        2.16786       -0.08427
N         -0.74682        1.90390       -0.10456
C         -0.90479        0.55974       -0.07691
C          1.14983        3.55485       -0.11628
H          2.25045        3.57251       -0.04663
H          0.74092        4.14008        0.73287
H          0.86045        4.04540       -1.06996
C         -1.79635        2.91703       -0.19446
H         -1.54957        3.63225       -1.00567
H         -1.88576        3.45086        0.77113
H         -2.77045        2.46079       -0.47278
C          4.64622       -1.02825        0.13968
H          4.88387       -1.54904        1.09037
H          5.25251       -0.10024        0.10891
H          4.95190       -1.65588       -0.72305
C          2.68331       -3.19542        0.18818
H          3.25861       -3.34612        1.12543
H          3.31587       -3.45716       -0.68546
H          1.82216       -3.89333        0.20704
C         -2.22691       -0.10960       -0.02639
C         -2.56846       -1.13014       -0.92441
C         -3.17352        0.30813        0.93248
C         -4.43569       -0.27980        0.98321
C         -4.77793       -1.27810        0.06879
C         -3.84564       -1.70165       -0.88493
H         -1.86152       -1.45491       -1.67868
H         -2.91907        1.08089        1.64868
H         -5.15243        0.04372        1.72675
H         -5.76535       -1.71894        0.09743
H         -4.11779       -2.46880       -1.59708
