29
energy:      -782.7939809630
C         -3.58068       -1.28795        0.16800
C         -2.54503       -2.16016        0.22425
C         -3.33968        0.17122        0.01544
H         -4.59977       -1.65375        0.24189
C         -1.13163       -1.68749        0.13023
H         -2.74683       -3.21931        0.34319
C         -0.89244       -0.23869       -0.00620
C         -1.95037        0.63309       -0.04988
C         -1.44583        1.90479       -0.14573
N         -0.09664        1.84207       -0.14629
C          0.26366        0.53653       -0.05786
H         -2.01596        2.82216       -0.21803
C          0.78134        3.00064       -0.30266
H          1.71535        2.69941       -0.82744
H          1.01028        3.43549        0.68747
H          0.28563        3.75500       -0.94448
C          1.67126        0.07777       -0.01525
C          2.13195       -0.94907       -0.85518
C          2.57601        0.70338        0.86333
C          3.91401        0.30917        0.90208
C          3.48119       -1.32444       -0.82892
C          4.37094       -0.69820        0.05028
H          1.45836       -1.43014       -1.55291
H          3.83961       -2.09816       -1.49601
H          5.41209       -0.99166        0.07130
H          4.59976        0.79066        1.58890
H          2.23879        1.48534        1.53151
O         -4.26939        0.95937       -0.03371
O         -0.20792       -2.48194        0.19357
