33
energy:      -860.1580442790
C          2.02266       -2.87801       -0.20116
C          3.16609       -2.16029       -0.16213
C          0.68763       -2.21608       -0.12238
H          2.07025       -3.96383       -0.29929
C          0.65238       -0.74664       -0.03265
C          1.82597       -0.01692       -0.00010
C          3.13936       -0.67585       -0.03862
H          4.12390       -2.66955       -0.22890
O         -0.33673       -2.87951       -0.15880
O          4.17128       -0.02588        0.00005
C         -0.39612        0.17855        0.01134
C          1.45896        1.31552        0.07185
N          0.14492        1.41061        0.07295
C         -1.85543       -0.05277        0.00422
C         -2.66249        0.73280       -0.84040
C         -2.46092       -1.01575        0.82873
C         -3.85389       -1.16765        0.82018
C         -4.64378       -0.38032       -0.02532
C         -4.04457        0.56205       -0.86191
H         -2.21243        1.45832       -1.50488
H         -4.65045        1.16374       -1.52612
H         -5.71935       -0.49946       -0.03446
H         -1.86460       -1.61850        1.50010
H         -4.32505       -1.89073        1.47234
C         -0.32920        2.74979        0.30851
C          0.94603        3.57186        0.01964
H         -0.61576        2.80828        1.37938
H         -1.17124        3.05957       -0.34156
C          2.15374        2.61341        0.23900
H          0.99905        4.55839        0.52397
H          0.91303        3.75801       -1.07942
H          2.53290        2.66856        1.28100
H          2.96268        2.82023       -0.49417
