39
energy:     -1050.0196696100
C          2.72509       -0.97613       -0.17859
C          3.13890        0.33683       -0.25197
C          1.27035       -1.31227       -0.10294
C          2.13758        1.44725       -0.20080
C          0.30655       -0.20432        0.01768
C          0.73699        1.10226       -0.03959
C         -1.08581       -0.15818        0.14013
C         -0.38933        1.89590        0.07349
N         -1.45139        1.12882        0.16930
O          0.89833       -2.47503       -0.16909
O          2.47931        2.61666       -0.25067
C         -2.04829       -1.25309        0.21117
O         -3.33218       -0.98350       -0.11550
O         -1.70938       -2.37444        0.56111
C         -4.33742       -1.91268       -0.05994
C         -5.61272       -1.29936       -0.61247
H         -4.48429       -2.21526        0.99694
H         -4.06137       -2.79722       -0.67441
H         -5.89346       -0.40083       -0.02242
H         -6.42795       -2.04838       -0.55438
H         -5.46691       -1.00278       -1.67384
C         -2.69077        1.87043        0.20456
C         -2.16742        3.29646        0.49466
H         -3.36785        1.51117        1.00288
H         -3.16373        1.79186       -0.79672
C         -0.68572        3.34041        0.02312
H         -2.12161        3.35493        1.60731
H         -2.82112        4.11860        0.14584
H         -0.06788        3.96369        0.70339
H         -0.60464        3.67843       -1.02842
C          4.59207        0.70608       -0.43322
H          5.06198        0.05291       -1.19781
H          5.14245        0.65997        0.52884
H          4.68326        1.73896       -0.82706
O          3.60964       -2.00830       -0.20126
C          4.65554       -2.10482        0.68978
H          5.58671       -1.75008        0.20978
H          4.78321       -3.16696        0.97530
H          4.45043       -1.52167        1.61707
