31
energy:     -1231.5457557500
C          0.55390        2.58676        0.02179
C         -0.90371        2.74136        0.14092
C          1.15833        1.21445       -0.02445
C          0.33811        0.03582       -0.00153
C         -1.15456        0.26198        0.02473
C         -1.70713        1.52182        0.09453
O         -1.42299        3.84061        0.24768
O          1.26335        3.58297       -0.01494
C          0.99948       -1.24521        0.05679
C          2.40120       -1.28884       -0.00088
C          2.55576        1.10307       -0.06599
C          3.17721       -0.14190       -0.08883
H          2.88764       -2.25660        0.02799
H          3.16639        1.99859       -0.10335
C          4.65568       -0.23813       -0.18789
C          0.36314       -2.58526        0.21540
C         -3.08283        1.38409        0.08410
C         -3.30853        0.02324       -0.02490
N         -2.14395       -0.63839       -0.04879
C         -4.59338       -0.67462       -0.13664
O         -5.64499       -0.04301       -0.11024
O         -4.59774       -2.01583       -0.30062
H         -5.41054       -2.52270       -0.41732
O         -0.47922       -2.98295       -0.56590
O          0.87844       -3.45939        1.11211
H          1.56784       -3.19336        1.74170
O          5.35098        0.71391        0.10872
O          5.24582       -1.35987       -0.67074
H          4.74351       -2.06572       -1.09768
H         -3.82483        2.17449        0.12147
H         -2.10959       -1.66286       -0.12772
