42
energy:     -1176.6711500300
C         -3.06090       -1.77035       -0.12806
C         -3.70119       -0.59510        0.15895
C         -1.58312       -1.77656       -0.32924
C         -0.82137       -0.52614       -0.12645
C         -1.43294        0.59833        0.16090
C         -2.90278        0.66543        0.29727
O         -1.01294       -2.80167       -0.66609
O         -3.44833        1.73148        0.53640
N         -3.77485       -3.00028       -0.24789
C         -5.20079       -0.54563        0.33402
H         -5.69891       -0.90320       -0.59250
H         -5.56225        0.48418        0.53022
H         -5.50038       -1.18217        1.19185
C          0.63663       -0.27912       -0.39917
C          0.81665        1.19816        0.13749
N         -0.53704        1.67536        0.25745
C         -0.80099        2.93576       -0.39031
C          0.44842        3.19317       -1.22275
H         -0.95899        3.73407        0.36713
H         -1.68449        2.87174       -1.05989
C          1.45495        2.16633       -0.88125
N          1.56884        3.52265       -0.32074
H          2.36138        1.92097       -1.47576
H          0.45344        3.96731       -2.02205
O          1.33630        1.22021        1.46784
C          2.72723        1.43536        1.56992
H          2.95273        2.52001        1.57730
H          3.31108        0.92031        0.78701
H          3.06001        1.02275        2.54407
H          2.30213        4.02293       -0.87654
H         -4.79239       -3.05604       -0.10810
H         -3.26769       -3.87615       -0.44127
C          1.60394       -1.32250        0.18008
H          0.70098       -0.31850       -1.51009
O          2.86198       -1.11948       -0.35384
H          1.28588       -2.33926       -0.11846
H          1.62067       -1.27750        1.29040
C          3.93834       -1.88351       -0.04252
O          3.87991       -2.71314        0.85269
N          5.09125       -1.71814       -0.72983
H          5.14092       -1.03256       -1.49667
H          5.91591       -2.29326       -0.51344
