23
energy:      -915.1031258130
C         -1.00236       -0.32354        3.60082
C          0.37771       -0.48694        3.71070
C         -1.56477        0.03949        2.37717
C         -0.75651        0.23560        1.24651
C          0.64071        0.08286        1.36609
C          1.19681       -0.27433        2.60118
H         -1.63806       -0.49031        4.46007
H         -2.64229        0.14445        2.30178
H          0.81425       -0.77451        4.65793
H          2.26905       -0.39163        2.69988
N         -1.38029        0.51668        0.00043
C         -0.75438        0.23393       -1.24383
C          0.64200        0.08148       -1.36311
S          1.76189        0.38066        0.00117
C         -1.56400        0.03994       -2.37588
C         -0.99927       -0.32469       -3.59864
C          0.38100       -0.48704       -3.70855
C          1.19838       -0.27544       -2.59825
H         -2.63917        0.14392       -2.29996
H         -1.63458       -0.49112       -4.45810
H          2.27124       -0.39086       -2.69627
H          0.81819       -0.77415       -4.65552
H         -2.40150        0.66663        0.00038
