%nproc=8
%mem=18000mb
#P PBE1PBE DEF2TZVPP OPT FREQ SCF(tight) INT(ultrafine)

 11-bicarboxymethyl-3l_2c_ox

 3 2
 N       -3.4643340000        0.0130330000        0.6579890000
 C       -2.8775290000       -1.0922370000        0.1463590000
 C       -1.5186440000       -1.1153970000       -0.1183640000
 C       -2.7351810000        1.1234060000        0.9126840000
 C       -1.3737770000        1.1527260000        0.6625840000
 C       -0.7311450000        0.0207040000        0.1383170000
 C        0.7311290000        0.0207930000       -0.1382910000
 C        1.5186650000       -1.1154020000        0.1178600000
 C        1.3737240000        1.1530790000       -0.6620320000
 C        2.7351290000        1.1239200000       -0.9121450000
 C        2.8775490000       -1.0920750000       -0.1468520000
 N        3.4643180000        0.0134520000       -0.6579680000
 H        3.2634610000        1.9851370000       -1.3293370000
 H        0.8301710000        2.0674010000       -0.9109440000
 H        1.0993230000       -2.0285120000        0.5466530000
 H        3.5144380000       -1.9611540000        0.0366960000
 H       -0.8302540000        2.0669490000        0.9119230000
 H       -3.2635410000        1.9844110000        1.3302770000
 H       -3.5143890000       -1.9612520000       -0.0375940000
 H       -1.0992720000       -2.0282930000       -0.5475810000
 C       -4.9043920000        0.0083980000        0.9247410000
 C       -5.7526080000       -0.0340570000       -0.3521470000
 H       -5.1909260000        0.9027200000        1.4978810000
 H       -5.1790800000       -0.8763280000        1.5258220000
 O       -5.2561900000       -0.3357510000       -1.4203810000
 O       -6.9889450000        0.2433780000       -0.1236810000
 C        4.9043760000        0.0089900000       -0.9247220000
 C        5.7525890000       -0.0340220000        0.3521490000
 H        5.1908830000        0.9035900000       -1.4974410000
 H        5.1790890000       -0.8754450000       -1.5262210000
 O        6.9890100000        0.2430800000        0.1237290000
 O        5.2562230000       -0.3364560000        1.4201970000
 H       -7.5664310000        0.1746990000       -0.9132830000
 H        7.5665430000        0.1737210000        0.9132380000

