%nproc=8
%mem=18000mb
#P PBE1PBE DEF2TZVPP OPT FREQ SCF(tight) INT(ultrafine)

 piperidine_n_rd

-1 2
 C       -4.8093400000        1.2873000000        0.1576900000
 C       -4.7799800000       -0.1958400000       -0.2225800000
 C       -3.4939000000       -0.8593300000        0.2941200000
 C       -2.2545700000       -0.0769800000       -0.1675900000
 C       -2.3811000000        1.4015800000        0.2105700000
 N       -3.6115400000        1.9523500000       -0.3806800000
 H       -4.8754200000        1.3746500000        1.2611400000
 H       -5.6932800000        1.7757300000       -0.2673200000
 H       -1.5293000000        1.9716900000       -0.1766700000
 H       -2.3715300000        1.4925300000        1.3156500000
 H       -4.8256300000       -0.2787200000       -1.3158500000
 H       -5.6637400000       -0.7006600000        0.1867400000
 H       -3.4375100000       -1.9015800000       -0.0424300000
 H       -3.5168400000       -0.8803200000        1.3935200000
 H       -2.1538500000       -0.1529900000       -1.2576600000
 H       -1.3459400000       -0.4974300000        0.2808100000
 H       -3.6628200000        2.9511700000       -0.1850000000

