%nproc=8
%mem=18000mb
#P PBE1PBE DEF2TZVPP OPT FREQ SCF(tight) INT(ultrafine)

 44-dimethyl-22-bipyr_n_ox

 1 2
 C        3.0386710000        0.6368740000        0.0056890000
 C        3.3847830000       -0.7199020000        0.0076070000
 C        1.6708210000        0.9706910000        0.0034980000
 C        2.3862670000       -1.7004270000        0.0042660000
 N        1.1280680000       -1.3266880000        0.0001540000
 C        0.7300730000       -0.0466330000        0.0003930000
 C       -0.7300380000       -0.0466330000       -0.0003540000
 C       -1.6707860000        0.9707200000       -0.0037110000
 C       -3.0386170000        0.6369300000       -0.0059690000
 C       -3.3847520000       -0.7198690000       -0.0078230000
 N       -1.1280470000       -1.3266590000        0.0000450000
 C       -2.3862690000       -1.7003900000       -0.0042240000
 H        1.3513150000        2.0155380000        0.0057130000
 H        4.4317940000       -1.0308610000        0.0132330000
 H        2.6109080000       -2.7717970000        0.0060960000
 H       -1.3512630000        2.0155580000       -0.0061480000
 H       -2.6109120000       -2.7717580000       -0.0060060000
 H       -4.4317670000       -1.0308210000       -0.0136470000
 C        4.0823100000        1.7069540000       -0.0085860000
 H        5.0839410000        1.3029000000        0.1850810000
 H        3.8650270000        2.4813800000        0.7417230000
 H        4.1015750000        2.2042870000       -0.9920350000
 C       -4.0823730000        1.7068860000        0.0087660000
 H       -3.8604230000        2.4867570000       -0.7344250000
 H       -4.1081760000        2.1969730000        0.9957450000
 H       -5.0827110000        1.3040590000       -0.1940260000

