%nproc=8
%mem=18000mb
#P PBE1PBE DEF2TZVPP OPT FREQ SCF(tight) INT(ultrafine)

 44-dimethyl-22-bipyr_n_gn

 0 1
 C        2.8789960000        0.7223250000        0.1455910000
 C        3.4640100000       -0.4756320000       -0.2756510000
 C        1.4867490000        0.7398050000        0.2499340000
 C        2.6435330000       -1.5677140000       -0.5520880000
 N        1.3212300000       -1.5473620000       -0.4449310000
 C        0.7440840000       -0.4099580000       -0.0540400000
 C       -0.7440800000       -0.4099600000        0.0540330000
 C       -1.4867490000        0.7398010000       -0.2499510000
 C       -2.8789940000        0.7223200000       -0.1456050000
 C       -3.4640060000       -0.4756360000        0.2756480000
 N       -1.3212230000       -1.5473580000        0.4449390000
 C       -2.6435280000       -1.5677110000        0.5520970000
 H        0.9796880000        1.6449680000        0.5930300000
 H        4.5483330000       -0.5614080000       -0.3855970000
 H        3.0888020000       -2.5138570000       -0.8836100000
 H       -0.9796930000        1.6449610000       -0.5930610000
 H       -3.0887950000       -2.5138530000        0.8836240000
 H       -4.5483300000       -0.5614160000        0.3855910000
 C        3.7105880000        1.9191850000        0.4995900000
 H        4.1543000000        1.8001600000        1.5018540000
 H        3.1120990000        2.8409500000        0.5094490000
 H        4.5418040000        2.0527220000       -0.2085770000
 C       -3.7105990000        1.9191780000       -0.4995790000
 H       -3.1119850000        2.8408540000       -0.5100660000
 H       -4.5414150000        2.0530760000        0.2089930000
 H       -4.1548770000        1.7998720000       -1.5015570000

