%nproc=8
%mem=18000mb
#P PBE1PBE DEF2TZVPP OPT FREQ SCF(tight) INT(ultrafine)

 11-bis-2-propynyl-3l_2c_gn

 2 1
 N        3.5105360000       -0.3473430000        0.1878580000
 C        2.8699360000        0.7501300000       -0.2445590000
 C        2.8232450000       -1.4499370000        0.5500870000
 C        1.4858580000        0.7779610000       -0.3251180000
 C        0.7409040000       -0.3493120000        0.0394800000
 C        1.4445760000       -1.4817890000        0.4827410000
 C       -0.7409020000       -0.3493120000       -0.0394770000
 C       -1.4858570000        0.7779590000        0.3251250000
 C       -2.8699350000        0.7501280000        0.2445650000
 N       -3.5105350000       -0.3473430000       -0.1878570000
 C       -2.8232430000       -1.4499350000       -0.5500900000
 C       -1.4445740000       -1.4817870000       -0.4827440000
 H       -3.4101250000       -2.3032170000       -0.8988340000
 H       -0.9314920000       -2.3897000000       -0.8056660000
 H       -1.0104800000        1.6855190000        0.7022850000
 H       -3.5037840000        1.5961880000        0.5244500000
 H        3.4101280000       -2.3032210000        0.8988260000
 H        0.9314940000       -2.3897040000        0.8056600000
 H        3.5037850000        1.5961900000       -0.5244410000
 H        1.0104810000        1.6855220000       -0.7022730000
 C        5.0068520000       -0.3924250000        0.2857960000
 C        5.6584270000        0.8308010000       -0.1242580000
 H        5.3386240000       -1.2387460000       -0.3383840000
 H        5.2470480000       -0.6287610000        1.3357720000
 C        6.2780020000        1.8173120000       -0.4503610000
 H        6.8376790000        2.6936920000       -0.7397610000
 C       -5.0068510000       -0.3924250000       -0.2857980000
 C       -5.6584280000        0.8308000000        0.1242570000
 H       -5.3386230000       -1.2387480000        0.3383780000
 H       -5.2470440000       -0.6287570000       -1.3357760000
 C       -6.2780110000        1.8173060000        0.4503590000
 H       -6.8376940000        2.6936960000        0.7397200000

