%nproc=8
%mem=18000mb
#P PBE1PBE DEF2TZVPP OPT FREQ SCF(tight) INT(ultrafine)

 11-bis-2-propynyl-3l_2c_rd

 1 2
 N       -3.5215980000        0.1606710000       -0.5860150000
 C       -2.7533080000        1.2653140000       -0.3638660000
 C       -2.9256470000       -1.0656390000       -0.6148630000
 C       -1.4021810000        1.1752620000       -0.1932270000
 C       -0.7271880000       -0.0843800000       -0.2286460000
 C       -1.5785960000       -1.2110890000       -0.4501980000
 C        0.6862940000       -0.2069530000       -0.0550990000
 C        1.5387080000        0.9182950000        0.1665050000
 C        2.8870430000        0.7750610000        0.3287000000
 N        3.4857160000       -0.4488190000        0.2844260000
 C        2.7141110000       -1.5538180000        0.0756360000
 C        1.3625180000       -1.4653240000       -0.0932610000
 H        3.2380190000       -2.5105850000        0.0477530000
 H        0.8240220000       -2.3966770000       -0.2635800000
 H        1.1424770000        1.9319220000        0.2102370000
 H        3.5523350000        1.6254720000        0.4854370000
 H       -3.5863100000       -1.9187710000       -0.7763000000
 H       -1.1814820000       -2.2242780000       -0.4957960000
 H       -3.2802980000        2.2200750000       -0.3308270000
 H       -0.8609480000        2.1062190000       -0.0299540000
 C       -4.9791010000        0.2797640000       -0.6915010000
 C       -5.6506490000        0.1908160000        0.5992120000
 H       -5.3375120000       -0.5105790000       -1.3693550000
 H       -5.2081720000        1.2389510000       -1.1814780000
 C       -6.2121500000        0.1176380000        1.6674890000
 H       -6.7173080000        0.0532140000        2.6158600000
 C        4.9240010000       -0.6036650000        0.5503240000
 C        5.7320160000        0.4909230000        0.0377300000
 H        5.2451370000       -1.5506190000        0.0903100000
 H        5.0784010000       -0.7051930000        1.6396790000
 C        6.4313230000        1.3901010000       -0.3677690000
 H        7.0596550000        2.1840440000       -0.7338610000

