%nproc=8
%mem=18000mb
#P PBE1PBE DEF2TZVPP OPT FREQ SCF(tight) INT(ultrafine)

 58-dihydroxy-14-nq_n_gn

 0 1
 C       -0.8922060000       -2.3589530000       -0.0000840000
 C       -1.5271800000       -1.0967880000       -0.0000180000
 C       -0.7357620000        0.0606120000        0.0000030000
 C        0.6830910000       -0.0715970000        0.0000130000
 C        1.2988970000       -1.3414630000        0.0000370000
 C        0.4776980000       -2.4875600000       -0.0000690000
 H        0.9571450000       -3.4681070000       -0.0000510000
 H       -1.5173230000       -3.2581640000       -0.0001160000
 C       -1.3449630000        1.4153930000       -0.0000650000
 C       -0.4100040000        2.5702050000        0.0001200000
 C        0.9245830000        2.4347770000        0.0000040000
 C        1.5522880000        1.1073300000       -0.0000060000
 O       -2.5419580000        1.6258130000        0.0003080000
 O        2.7851500000        1.0093260000       -0.0006500000
 O        2.6107700000       -1.5005710000        0.0003180000
 H        3.0008160000       -0.5821900000        0.0007310000
 O       -2.8633610000       -1.0118240000       -0.0000110000
 H       -3.2346630000       -1.9011640000       -0.0000250000
 H        1.6083150000        3.2873740000       -0.0000650000
 H       -0.8977500000        3.5485670000        0.0002000000

