%nproc=8
%mem=18000mb
#P PBE1PBE DEF2TZVPP OPT FREQ SCF(tight) INT(ultrafine)

 58-dihydroxy-14-nq_n_rd

-1 2
 C       -0.9081500000       -2.3415580000        0.0000300000
 C       -1.5283380000       -1.0947240000       -0.0000710000
 C       -0.7405460000        0.0849940000       -0.0001120000
 C        0.6815940000       -0.0567860000       -0.0000370000
 C        1.2950320000       -1.3472980000        0.0001010000
 C        0.4836000000       -2.4787980000        0.0001120000
 H        0.9572690000       -3.4632860000        0.0002130000
 H       -1.5392110000       -3.2396740000        0.0000580000
 C       -1.3519920000        1.4346240000       -0.0002690000
 C       -0.4175440000        2.5382590000       -0.0000250000
 C        0.9485490000        2.3892420000        0.0000200000
 C        1.5662030000        1.1048610000       -0.0001430000
 O       -2.5796300000        1.6379980000       -0.0000210000
 O        2.8369160000        0.9674530000        0.0001100000
 O        2.6205620000       -1.4684090000        0.0002530000
 H        2.9506060000       -0.4894560000        0.0002910000
 O       -2.8869720000       -1.0195620000       -0.0001350000
 H       -3.2067500000       -1.9274910000       -0.0000930000
 H        1.6207340000        3.2529910000        0.0001620000
 H       -0.8801160000        3.5301730000        0.0000830000

