%nproc=8
%mem=18000mb
#P PBE1PBE DEF2TZVPP OPT FREQ SCF(tight) INT(ultrafine)

 11-dimethyl-22-bis-4-methylphenyl-3p_2c_ox

 3 2
 N       -3.3921640000       -1.8741310000        0.9797640000
 C       -2.5928280000       -2.9408890000        1.1905450000
 C       -1.2671490000       -2.9497920000        0.8074950000
 C       -0.7123790000       -1.8058400000        0.2146890000
 C       -2.9094300000       -0.7523710000        0.3719850000
 C       -1.5543550000       -0.7055520000        0.0215300000
 C        0.7123870000       -1.8058450000       -0.2146610000
 C        1.2671550000       -2.9498100000       -0.8074450000
 C        2.5928330000       -2.9409150000       -1.1904960000
 N        3.3921720000       -1.8741550000       -0.9797360000
 C        2.9094410000       -0.7523820000       -0.3719740000
 C        1.5543640000       -0.7055550000       -0.0215230000
 H       -3.0491100000       -3.7966980000        1.6933880000
 H       -0.6755540000       -3.8435060000        1.0151270000
 H       -1.1955270000        0.1974460000       -0.4762840000
 H        0.6755580000       -3.8435260000       -1.0150610000
 H        3.0491130000       -3.7967330000       -1.6933260000
 H        1.1955370000        0.1974520000        0.4762750000
 C       -4.7818620000       -1.9598720000        1.4719920000
 H       -5.1367360000       -0.9614160000        1.7492190000
 H       -5.4325550000       -2.3878280000        0.6970420000
 H       -4.7983970000       -2.6078980000        2.3562390000
 C        4.7818640000       -1.9599080000       -1.4719780000
 H        5.1367380000       -0.9614590000       -1.7492290000
 H        5.4325650000       -2.3878520000       -0.6970290000
 H        4.7983860000       -2.6079510000       -2.3562130000
 C       -3.8066020000        0.3788010000        0.0563710000
 C        3.8066080000        0.3787990000       -0.0563800000
 C        3.4798340000        1.6767280000       -0.5103040000
 C        4.9591240000        0.1919700000        0.7465330000
 C        5.7603980000        1.2664830000        1.0714640000
 C        4.2990690000        2.7460100000       -0.2042750000
 C        5.4632590000        2.5746270000        0.5967080000
 H        5.2034150000       -0.7944720000        1.1473820000
 H        6.6344600000        1.1167400000        1.7105030000
 H        2.6004140000        1.8337520000       -1.1397600000
 H        4.0578450000        3.7419790000       -0.5841200000
 C        6.3492650000        3.7121980000        0.9062690000
 H        5.8365440000        4.6818020000        0.8401630000
 H        7.1700060000        3.7423290000        0.1558950000
 H        6.8469970000        3.6025160000        1.8815480000
 C       -3.4798310000        1.6767420000        0.5102600000
 C       -4.9591290000        0.1919430000       -0.7465200000
 C       -5.7604150000        1.2664410000       -1.0714710000
 C       -5.4632770000        2.5745960000       -0.5967580000
 C       -4.2990750000        2.7460080000        0.2042100000
 H       -2.6004040000        1.8337880000        1.1397000000
 H       -4.0578520000        3.7419890000        0.5840260000
 H       -5.2034200000       -0.7945130000       -1.1473350000
 H       -6.6344830000        1.1166760000       -1.7104940000
 C       -6.3492860000        3.7121670000       -0.9063120000
 H       -6.8475510000        3.6022040000       -1.8812770000
 H       -5.8363750000        4.6817210000       -0.8408240000
 H       -7.1695780000        3.7427520000       -0.1554640000

