%nproc=8
%mem=18000mb
#P PBE1PBE DEF2TZVPP OPT FREQ SCF(tight) INT(ultrafine)

 11-dimethyl-22-bis-4-methylphenyl-3p_2c_rd

 1 2
 N       -3.5485130000       -2.0734400000        0.1552470000
 C       -2.8457200000       -3.2452150000        0.1258270000
 C       -1.4853770000       -3.2875050000        0.0616410000
 C       -0.7146600000       -2.0864190000        0.0272280000
 C       -2.8626730000       -0.8799250000        0.0844390000
 C       -1.4867110000       -0.8893440000        0.0352440000
 C        0.7146780000       -2.0864200000       -0.0272220000
 C        1.4853940000       -3.2875070000       -0.0616340000
 C        2.8457360000       -3.2452180000       -0.1258240000
 N        3.5485320000       -2.0734440000       -0.1552450000
 C        2.8626920000       -0.8799260000       -0.0844310000
 C        1.4867310000       -0.8893460000       -0.0352400000
 H       -3.4439330000       -4.1563070000        0.1692620000
 H       -1.0174040000       -4.2709080000        0.0466050000
 H       -1.0067380000        0.0858540000       -0.0328280000
 H        1.0174200000       -4.2709090000       -0.0466000000
 H        3.4439470000       -4.1563100000       -0.1692650000
 H        1.0067570000        0.0858530000        0.0328290000
 C       -4.9971190000       -2.1329580000        0.3049950000
 H       -5.3488980000       -1.2687070000        0.8798110000
 H       -5.5034130000       -2.1370770000       -0.6717840000
 H       -5.2601030000       -3.0511160000        0.8447260000
 C        4.9971350000       -2.1329740000       -0.3050130000
 H        5.3489150000       -1.2687300000       -0.8798400000
 H        5.5034450000       -2.1370940000        0.6717570000
 H        5.2601020000       -3.0511370000       -0.8447440000
 C       -3.6122800000        0.3959410000        0.0544690000
 C        3.6122910000        0.3959440000       -0.0544640000
 C        3.3700890000        1.3716690000       -1.0293990000
 C        4.5245910000        0.6849230000        0.9719620000
 C        5.1770720000        1.9107520000        1.0101280000
 C        4.0340320000        2.5947260000       -0.9859820000
 C        4.9512600000        2.8882440000        0.0295560000
 H        4.7053800000       -0.0432960000        1.7667260000
 H        5.8727040000        2.1202480000        1.8271730000
 H        2.6648520000        1.1648730000       -1.8384170000
 H        3.8353250000        3.3385580000       -1.7619720000
 C        5.6854720000        4.1950060000        0.0642160000
 H        5.1922170000        4.9545700000       -0.5575930000
 H        6.7137210000        4.0735460000       -0.3148850000
 H        5.7638160000        4.5850840000        1.0896150000
 C       -3.3700750000        1.3716770000        1.0293890000
 C       -4.5246140000        0.6848880000       -0.9719360000
 C       -5.1771140000        1.9107050000       -1.0101030000
 C       -4.9512900000        2.8882170000       -0.0295510000
 C       -4.0340360000        2.5947250000        0.9859700000
 H       -2.6648190000        1.1649010000        1.8383960000
 H       -3.8353270000        3.3385690000        1.7619480000
 H       -4.7054200000       -0.0433510000       -1.7666790000
 H       -5.8727760000        2.1201770000       -1.8271290000
 C       -5.6855080000        4.1949740000       -0.0642380000
 H       -5.7633820000        4.5852860000       -1.0895870000
 H       -5.1925480000        4.9544040000        0.5579650000
 H       -6.7139330000        4.0734130000        0.3143490000

