%nproc=8
%mem=18000mb
#P PBE1PBE DEF2TZVPP OPT FREQ SCF(tight) INT(ultrafine)

 methoxatine_n_rd

-1 2
 C        0.5871630000        2.5601260000        0.0817190000
 C       -0.9041810000        2.7376330000        0.1394300000
 C        1.1273070000        1.1858410000        0.0255630000
 C        0.3177640000       -0.0225050000        0.0224520000
 C       -1.0938540000        0.2033210000        0.0047610000
 C       -1.6661300000        1.5004930000        0.0701010000
 O       -1.4272090000        3.8455530000        0.2183520000
 O        1.3329560000        3.5443170000        0.0842950000
 C        1.0092180000       -1.2728780000        0.0830050000
 C        2.4032070000       -1.3137720000        0.0179210000
 C        2.5187260000        1.0844690000       -0.0255510000
 C        3.1807920000       -0.1381440000       -0.0817150000
 H        2.9007560000       -2.2888400000        0.0461310000
 H        3.0852040000        2.0188890000       -0.0406650000
 C        4.6553160000       -0.1667610000       -0.2069520000
 C        0.3394750000       -2.5994190000        0.2307890000
 C       -3.0672440000        1.3466650000        0.0268580000
 C       -3.3205340000       -0.0118350000       -0.0739240000
 N       -2.1234630000       -0.6859280000       -0.0814720000
 C       -4.6046810000       -0.6851290000       -0.1721290000
 O       -5.6925700000       -0.1542770000       -0.1701330000
 O       -4.4727350000       -2.0284410000       -0.2726760000
 H       -5.3758470000       -2.3697680000       -0.3348470000
 O       -0.7056950000       -2.9476700000       -0.2655800000
 O        1.0142380000       -3.4877160000        0.9851510000
 H        1.7484860000       -3.0215510000        1.4075580000
 O        5.3920800000        0.7484170000        0.0509000000
 O        5.1775790000       -1.3399820000       -0.6548880000
 H        4.4574130000       -1.8839640000       -0.9955590000
 H       -3.8067070000        2.1424360000        0.0591850000
 H       -1.9882920000       -1.6859400000       -0.2288390000

