%nproc=8
%mem=18000mb
#P PBE1PBE DEF2TZVPP OPT FREQ SCF(tight) INT(ultrafine)

 dimethyldisulfide_n_rd

-1 2
 S        1.2268600000        0.0050100000       -1.0304000000
 S        1.0261900000       -0.0858000000        1.0188700000
 C        0.0094000000        1.3869200000        1.4256400000
 C       -0.2463400000       -0.8933400000       -1.6556600000
 H       -0.9953200000        1.2954300000        1.0090900000
 H       -0.0499500000        1.4090200000        2.5188000000
 H       -0.2675900000       -1.9068600000       -1.2527600000
 H       -0.1273500000       -0.9297200000       -2.7435500000
 H        0.4984100000        2.2926600000        1.0643700000
 H       -1.1647000000       -0.3577600000       -1.4084300000

