%nproc=8
%mem=18000mb
#P PBE1PBE DEF2TZVPP OPT FREQ SCF(tight) INT(ultrafine)

 231112-tetramethyl-3d_2c_ox

 3 2
 C       -3.5381850000       -0.1577580000        0.1290160000
 C       -2.8542230000       -1.3279410000       -0.3271860000
 C       -2.7486680000        0.9477940000        0.5575860000
 N       -1.4182700000        0.9646880000        0.5103950000
 C       -1.4569570000       -1.2804580000       -0.3346780000
 C       -0.7297550000       -0.1392990000        0.0420140000
 C        0.7297560000       -0.1393000000       -0.0420140000
 N        1.4182710000        0.9646870000       -0.5103960000
 C        1.4569570000       -1.2804580000        0.3346780000
 C        2.8542230000       -1.3279410000        0.3271860000
 C        3.5381850000       -0.1577580000       -0.1290160000
 C        2.7486680000        0.9477930000       -0.5575870000
 C       -0.6748930000        2.1220610000        1.0749230000
 C        0.0000010000        2.9605540000        0.0000000000
 H        0.0479840000        1.7066480000        1.7937870000
 H       -1.3839650000        2.7229560000        1.6590340000
 C        0.6748930000        2.1220600000       -1.0749230000
 H        0.7220360000        3.6221320000        0.5046130000
 H       -0.7220330000        3.6221350000       -0.5046130000
 H        1.3839640000        2.7229550000       -1.6590360000
 H       -0.0479850000        1.7066470000       -1.7937860000
 H        0.9066800000       -2.1459040000        0.7116170000
 H        3.2325620000        1.8350580000       -0.9788360000
 H       -0.9066800000       -2.1459040000       -0.7116160000
 C        3.5942200000       -2.5271920000        0.7807860000
 H        2.9278000000       -3.3421160000        1.0883640000
 H        4.2581120000       -2.2800780000        1.6288210000
 H        4.2572640000       -2.9004890000       -0.0205480000
 C        5.0015860000       -0.0687850000       -0.2027670000
 H        5.4605400000       -0.3164980000        0.7763980000
 H        5.3706670000        0.9073120000       -0.5407500000
 H        5.4045110000       -0.8540210000       -0.8786810000
 C       -5.0015870000       -0.0687850000        0.2027680000
 H       -5.4605430000       -0.3165080000       -0.7763930000
 H       -5.3706680000        0.9073160000        0.5407420000
 H       -5.4045090000       -0.8540140000        0.8786920000
 C       -3.5942200000       -2.5271920000       -0.7807860000
 H       -4.2572670000       -2.9004880000        0.0205470000
 H       -2.9278000000       -3.3421180000       -1.0883620000
 H       -4.2581090000       -2.2800790000       -1.6288230000
 H       -3.2325630000        1.8350590000        0.9788340000

