%nproc=8
%mem=18000mb
#P PBE1PBE DEF2TZVPP OPT(calcall) FREQ SCF(tight) INT(ultrafine)

 1-oxide-3q_c_ox

 2 2
 N       -3.5863740000       -0.0019950000        0.0003690000
 C       -2.9202830000        1.1394070000        0.3765390000
 C       -1.5469430000        1.1550090000        0.3748230000
 C       -2.9178700000       -1.1419600000       -0.3758330000
 C       -1.5444820000       -1.1546160000       -0.3742260000
 C       -0.8229320000        0.0010230000        0.0001060000
 C        0.6584680000        0.0028010000       -0.0004170000
 C        1.3819420000        1.1414600000       -0.3821620000
 C        2.7675600000        1.1107620000       -0.3796580000
 N        3.4366910000        0.0059100000       -0.0027490000
 C        1.3859730000       -1.1366420000        0.3807620000
 C        2.7686250000       -1.1026590000        0.3758880000
 H       -3.5661080000        1.9745060000        0.6627590000
 H       -1.0430850000        2.0680720000        0.6989950000
 H       -3.5619250000       -1.9784810000       -0.6618800000
 H       -1.0388030000       -2.0667500000       -0.6981750000
 H        0.8909200000        2.0574950000       -0.7169100000
 H        3.3658800000        1.9728880000       -0.6823570000
 H        3.3728350000       -1.9619630000        0.6771090000
 H        0.8963880000       -2.0533660000        0.7157280000
 C        4.9114150000       -0.0097390000        0.0041230000
 H        5.2864030000        0.9590020000       -0.3426450000
 H        5.2667350000       -0.8037640000       -0.6668720000
 H        5.2648930000       -0.1970840000        1.0274490000
 O       -4.8518970000       -0.0033790000        0.0004740000

