%nproc=8
%mem=18000mb
#P PBE1PBE DEF2TZVPP OPT FREQ SCF(tight) INT(ultrafine)

 1-oxide-3q_c_rd

 0 2
 N        3.6540690000       -0.0000020000        0.0129520000
 C        2.9382350000       -1.1735170000        0.0077830000
 C        1.5679300000       -1.1932110000       -0.0017610000
 C        2.9382370000        1.1735150000        0.0077860000
 C        1.5679310000        1.1932110000       -0.0017590000
 C        0.7902090000        0.0000000000       -0.0071320000
 C       -0.6380430000        0.0000020000       -0.0174630000
 C       -1.4247230000       -1.2037860000       -0.0235370000
 C       -2.7837280000       -1.1811270000       -0.0320670000
 N       -3.4980900000        0.0000050000       -0.0504760000
 C       -1.4247210000        1.2037920000       -0.0235300000
 C       -2.7837260000        1.1811350000       -0.0320590000
 H        3.5672440000       -2.0634210000        0.0121990000
 H        1.0915800000       -2.1743090000       -0.0049520000
 H        3.5672460000        2.0634170000        0.0122030000
 H        1.0915820000        2.1743090000       -0.0049470000
 H       -0.9467830000       -2.1835530000       -0.0261880000
 H       -3.3795000000       -2.0953820000       -0.0363810000
 H       -3.3794960000        2.0953910000       -0.0363660000
 H       -0.9467810000        2.1835580000       -0.0261770000
 C       -4.9313840000       -0.0000100000        0.0947700000
 H       -5.3572800000       -0.8885440000       -0.3924580000
 H       -5.3572460000        0.8887390000       -0.3920870000
 H       -5.2459330000       -0.0002240000        1.1545190000
 O        4.9132760000       -0.0000020000        0.0221400000

