%nproc=8
%mem=18000mb
#P PBE1PBE DEF2TZVPP OPT FREQ SCF(tight) INT(ultrafine)

 1-oxide-3q_c_gn

 1 1
 N       -3.6353710000       -0.0007890000       -0.0045550000
 C       -2.9280010000        1.1753350000        0.1298310000
 C       -1.5573740000        1.1882930000        0.1288290000
 C       -2.9263880000       -1.1763690000       -0.1352190000
 C       -1.5557790000       -1.1882080000       -0.1273830000
 C       -0.8046960000        0.0003750000        0.0023650000
 C        0.6468230000        0.0008750000        0.0050150000
 C        1.4037050000        1.1899280000       -0.1242900000
 C        2.7769500000        1.1612410000       -0.1176490000
 N        3.4606970000        0.0020950000        0.0144900000
 C        1.4039110000       -1.1876650000        0.1396330000
 C        2.7770200000       -1.1578600000        0.1414340000
 H       -3.5601570000        2.0565830000        0.2371080000
 H       -1.0783760000        2.1599120000        0.2566090000
 H       -3.5572940000       -2.0581480000       -0.2454580000
 H       -1.0753420000       -2.1594650000       -0.2525610000
 H        0.9230860000        2.1594740000       -0.2506100000
 H        3.3745360000        2.0682170000       -0.2242290000
 H        3.3748890000       -2.0641450000        0.2525860000
 H        0.9232230000       -2.1566340000        0.2700680000
 C        4.9236970000       -0.0040960000       -0.0314810000
 H        5.3058230000        0.9460550000        0.3596570000
 H        5.2672660000       -0.1388650000       -1.0675470000
 H        5.3055310000       -0.8228930000        0.5897430000
 O       -4.8674600000       -0.0012910000       -0.0076750000

