%nproc=8
%mem=18000mb
#P PBE1PBE DEF2TZVPP OPT FREQ SCF(tight) INT(ultrafine)

 1122-tetramethyl-3p_2c_ox

 3 2
 N       -3.5346740000       -0.5177140000       -0.0979030000
 C       -3.0468210000        0.7238430000        0.2173740000
 C       -1.6354790000        0.9202300000        0.2079950000
 C       -2.6952010000       -1.5198250000       -0.3946880000
 C       -1.2975520000       -1.3578660000       -0.3904580000
 C       -0.7379030000       -0.1098240000       -0.0881410000
 H       -3.1458430000       -2.4858200000       -0.6443230000
 H       -0.6969650000       -2.2325590000       -0.6528590000
 H       -1.2907210000        1.9240880000        0.4672130000
 C        0.7379040000        0.1098150000       -0.0881380000
 C        1.2975540000        1.3578470000       -0.3905080000
 C        2.6952060000        1.5198070000       -0.3947430000
 C        1.6354780000       -0.9202220000        0.2080520000
 C        3.0468160000       -0.7238330000        0.2174310000
 N        3.5346740000        0.5177130000       -0.0979100000
 H        1.2907190000       -1.9240660000        0.4673190000
 H        0.6969670000        2.2325290000       -0.6529470000
 H        3.1458460000        2.4857930000       -0.6444210000
 C        4.9925220000        0.7676620000       -0.1133530000
 H        5.4709750000        0.1063450000       -0.8497520000
 H        5.4078570000        0.5808830000        0.8873190000
 H        5.1722140000        1.8119250000       -0.3920490000
 C       -4.9925220000       -0.7676660000       -0.1133440000
 H       -5.4709520000       -0.1064810000       -0.8498780000
 H       -5.4078870000       -0.5807070000        0.8872800000
 H       -5.1722050000       -1.8119790000       -0.3918560000
 C        3.9694350000       -1.8135260000        0.5524650000
 H        3.4393940000       -2.7425690000        0.7913690000
 H        4.6200850000       -1.5428920000        1.4098870000
 H        4.6789750000       -2.0113900000       -0.2781960000
 C       -3.9694380000        1.8135540000        0.5523570000
 H       -4.6199310000        1.5430210000        1.4099360000
 H       -4.6791270000        2.0112500000       -0.2782100000
 H       -3.4394020000        2.7426540000        0.7910510000

