%nproc=8
%mem=18000mb
#P PBE1PBE DEF2TZVPP OPT FREQ SCF(tight) INT(ultrafine)

 1122-tetramethyl-3p_2c_rd

 1 2
 N       -3.5056020000       -0.5471090000       -0.0000010000
 C       -3.0162860000        0.7406250000        0.0000000000
 C       -1.6580460000        0.9474560000        0.0000010000
 C       -2.6294660000       -1.5953180000       -0.0000020000
 C       -1.2779720000       -1.4217110000       -0.0000020000
 C       -0.7057460000       -0.1141690000       -0.0000010000
 H       -3.0785470000       -2.5892120000       -0.0000040000
 H       -0.6612870000       -2.3193560000       -0.0000040000
 H       -1.3291210000        1.9857810000        0.0000020000
 C        0.7057460000        0.1141690000       -0.0000000000
 C        1.2779730000        1.4217110000       -0.0000010000
 C        2.6294660000        1.5953180000       -0.0000000000
 C        1.6580460000       -0.9474560000        0.0000010000
 C        3.0162850000       -0.7406250000        0.0000010000
 N        3.5056020000        0.5471090000        0.0000010000
 H        1.3291210000       -1.9857810000        0.0000010000
 H        0.6612870000        2.3193560000       -0.0000020000
 H        3.0785470000        2.5892120000       -0.0000010000
 C        4.9370970000        0.8068410000       -0.0000010000
 H        5.4142140000        0.3816140000       -0.8943980000
 H        5.4142190000        0.3815970000        0.8943850000
 H        5.1027530000        1.8898800000        0.0000090000
 C       -4.9370970000       -0.8068410000        0.0000020000
 H       -5.4142200000       -0.3815950000       -0.8943830000
 H       -5.4142130000       -0.3816160000        0.8944000000
 H       -5.1027530000       -1.8898800000       -0.0000110000
 C        3.9936620000       -1.8685480000        0.0000010000
 H        3.4624230000       -2.8274600000       -0.0000000000
 H        4.6459210000       -1.8433700000        0.8872300000
 H        4.6459230000       -1.8433690000       -0.8872250000
 C       -3.9936630000        1.8685480000        0.0000010000
 H       -4.6459260000        1.8433660000        0.8872260000
 H       -4.6459180000        1.8433730000       -0.8872290000
 H       -3.4624230000        2.8274600000        0.0000080000

