%nproc=8
%mem=18000mb
#P PBE1PBE DEF2TZVPP OPT FREQ SCF(tight) INT(ultrafine)

 111-diphenyl-3h_2c_rd

 1 2
 C       -3.4815420000        1.3702760000        0.1747780000
 C       -2.8375790000        0.1156640000        0.0258300000
 C       -2.7477090000        2.4871270000        0.4571910000
 C       -1.4282780000        0.0984580000       -0.0140360000
 N       -1.3894730000        2.4677750000        0.5077470000
 C       -0.6889780000        1.3214060000        0.1226990000
 C       -0.6796700000       -1.1012000000       -0.2475680000
 C        0.6784250000       -1.1085390000       -0.2382190000
 C        1.4393430000        0.1007420000       -0.1176930000
 C        0.7065660000        1.3349830000       -0.0991890000
 C        2.8489990000        0.1138180000       -0.0943580000
 C        3.4993510000        1.3718290000       -0.1691670000
 C        2.7719310000        2.5160820000       -0.3317950000
 N        1.4121930000        2.5162240000       -0.3436660000
 H       -4.5696400000        1.4363610000        0.1717320000
 H       -3.2184940000        3.4384850000        0.7123150000
 H       -1.2273670000       -2.0249980000       -0.4340270000
 H        1.2186150000       -2.0433870000       -0.3907590000
 C        0.7106700000        3.6906440000       -0.8641110000
 C        0.0172050000        4.4945030000        0.2206830000
 H       -0.0201260000        3.3302200000       -1.6053110000
 H        1.4373710000        4.3033400000       -1.4133080000
 C       -0.6887430000        3.5587580000        1.1855890000
 H       -0.6944610000        5.1882440000       -0.2535790000
 H        0.7373060000        5.1084980000        0.7837100000
 H       -1.4168570000        4.0971850000        1.8063620000
 H        0.0345880000        3.0986610000        1.8771130000
 H        4.5866600000        1.4346740000       -0.1234090000
 H        3.2466630000        3.4878580000       -0.4800160000
 C       -3.6697480000       -1.0996070000       -0.0734640000
 C       -4.7381480000       -1.1392470000       -0.9842030000
 C       -5.5538910000       -2.2634520000       -1.0695920000
 C       -5.3297120000       -3.3571000000       -0.2336560000
 C       -4.2845880000       -3.3214850000        0.6888400000
 C       -3.4578740000       -2.2042520000        0.7682940000
 H       -2.6614010000       -2.1727010000        1.5158240000
 H       -4.9147910000       -0.2902500000       -1.6496860000
 H       -6.3704190000       -2.2861000000       -1.7948110000
 H       -5.9750820000       -4.2361410000       -0.2965950000
 H       -4.1172680000       -4.1670250000        1.3599450000
 C        3.6653820000       -1.1108900000       -0.0019210000
 C        3.4021320000       -2.0929380000        0.9685200000
 C        4.2097380000       -3.2221170000        1.0691080000
 C        5.2878030000       -3.3932710000        0.2012890000
 C        5.5631230000       -2.4229440000       -0.7621090000
 C        4.7656280000       -1.2868400000       -0.8578700000
 H        4.9812560000       -0.5377100000       -1.6239760000
 H        2.5796500000       -1.9520390000        1.6740100000
 H        4.0018720000       -3.9693340000        1.8383740000
 H        5.9187200000       -4.2815100000        0.2800210000
 H        6.4051290000       -2.5527700000       -1.4457190000

