%nproc=8
%mem=18000mb
#P PBE1PBE DEF2TZVPP OPT FREQ SCF(tight) INT(ultrafine)

 111-diphenyl-3h_2c_gn

 2 1
 C       -3.4668630000        1.3496990000        0.2594350000
 C       -2.8522550000        0.1141880000        0.0336340000
 C       -2.7053610000        2.4512190000        0.5968880000
 C       -1.4139800000        0.1040170000       -0.0545670000
 N       -1.3635350000        2.4319310000        0.5799820000
 C       -0.6925800000        1.3125760000        0.1242240000
 C       -0.6855830000       -1.0832150000       -0.3548140000
 C        0.6776550000       -1.1015460000       -0.3166860000
 C        1.4306490000        0.0990130000       -0.1607710000
 C        0.7275830000        1.3304110000       -0.1240900000
 C        2.8719120000        0.1028830000       -0.1748390000
 C        3.4976790000        1.3403920000       -0.3512090000
 C        2.7490730000        2.4882730000       -0.5167550000
 N        1.4105700000        2.4985340000       -0.4069480000
 H       -4.5530550000        1.4279580000        0.3225980000
 H       -3.1692570000        3.3695650000        0.9640200000
 H       -1.2378690000       -1.9892730000       -0.6037140000
 H        1.2166350000       -2.0318860000       -0.4980760000
 C        0.6814950000        3.7099480000       -0.8402380000
 C        0.0479660000        4.4731280000        0.3035630000
 H       -0.0790700000        3.3746970000       -1.5617730000
 H        1.3881660000        4.3363410000       -1.3981560000
 C       -0.6288240000        3.5167470000        1.2642720000
 H       -0.6677680000        5.1944740000       -0.1199450000
 H        0.7938970000        5.0585200000        0.8626880000
 H       -1.3391420000        4.0364970000        1.9192490000
 H        0.1062910000        3.0283010000        1.9215790000
 H        4.5855170000        1.4180340000       -0.3735280000
 H        3.2191850000        3.4457110000       -0.7516240000
 C       -3.6790930000       -1.0861650000       -0.0864430000
 C       -4.8502470000       -1.0382700000       -0.8695410000
 C       -5.6711570000       -2.1536110000       -0.9713280000
 C       -5.3616500000       -3.3168320000       -0.2631130000
 C       -4.2223320000       -3.3659220000        0.5427300000
 C       -3.3770020000       -2.2663540000        0.6241090000
 H       -2.5146270000       -2.3024100000        1.2938690000
 H       -5.0944740000       -0.1366670000       -1.4370270000
 H       -6.5600910000       -2.1171760000       -1.6045740000
 H       -6.0176550000       -4.1876900000       -0.3325460000
 H       -3.9992050000       -4.2654540000        1.1203750000
 C        3.6688550000       -1.1096870000       -0.0191920000
 C        3.3239540000       -2.0889410000        0.9368690000
 C        4.1322450000       -3.2032490000        1.1198020000
 C        5.2785330000       -3.3727980000        0.3400370000
 C        5.6291630000       -2.4131730000       -0.6126280000
 C        4.8431440000       -1.2815020000       -0.7812740000
 H        5.1168110000       -0.5468090000       -1.5424810000
 H        2.4539590000       -1.9461630000        1.5823070000
 H        3.8760480000       -3.9408550000        1.8832690000
 H        5.9068680000       -4.2555090000        0.4803510000
 H        6.5217050000       -2.5508380000       -1.2265430000

