%nproc=8
%mem=18000mb
#P PBE1PBE DEF2TZVPP OPT FREQ SCF(tight) INT(ultrafine)

 111-diphenyl-3h_2c_ox

 3 2
 C       -3.4723480000        1.3501220000        0.2448500000
 C       -2.8587330000        0.1178170000        0.0014750000
 C       -2.7035660000        2.4411920000        0.6171550000
 C       -1.4207430000        0.0976910000       -0.0871650000
 N       -1.3620390000        2.4078090000        0.6034830000
 C       -0.6948140000        1.3041970000        0.1236610000
 C       -0.6922170000       -1.0803390000       -0.4101840000
 C        0.6780590000       -1.1026330000       -0.3656160000
 C        1.4341500000        0.0875410000       -0.1809640000
 C        0.7319630000        1.3232760000       -0.1258340000
 C        2.8771580000        0.0937910000       -0.2068360000
 C        3.5030560000        1.3301750000       -0.3925680000
 C        2.7493390000        2.4822080000       -0.5369220000
 N        1.4119140000        2.4865970000       -0.4098090000
 H       -4.5592860000        1.4413830000        0.2978920000
 H       -3.1646460000        3.3542840000        1.0028170000
 H       -1.2336940000       -1.9829480000       -0.6957380000
 H        1.2063290000       -2.0331890000       -0.5797710000
 C        0.6799180000        3.7144190000       -0.8144530000
 C        0.0536450000        4.4589190000        0.3454870000
 H       -0.0820610000        3.3893190000       -1.5396930000
 H        1.3863360000        4.3488100000       -1.3641310000
 C       -0.6212740000        3.4923590000        1.2973560000
 H       -0.6583210000        5.1907910000       -0.0668690000
 H        0.7998190000        5.0357000000        0.9136600000
 H       -1.3315500000        4.0044810000        1.9588250000
 H        0.1122580000        2.9912610000        1.9471750000
 H        4.5909050000        1.4158560000       -0.4293010000
 H        3.2177980000        3.4412850000       -0.7717950000
 C       -3.7014250000       -1.0759460000       -0.1011940000
 C       -4.8902390000       -1.0222120000       -0.8726420000
 C       -5.7085870000       -2.1318630000       -0.9594200000
 C       -5.3877440000       -3.3043180000       -0.2355900000
 C       -4.2293730000       -3.3577720000        0.5630860000
 C       -3.3890340000       -2.2640580000        0.6253660000
 H       -2.5233190000       -2.2866070000        1.2914110000
 H       -5.1377660000       -0.1238260000       -1.4433620000
 H       -6.6054500000       -2.1078730000       -1.5833820000
 H       -6.0560500000       -4.1691410000       -0.2841190000
 H       -4.0138020000       -4.2545640000        1.1483850000
 C        3.6862440000       -1.1086570000       -0.0315110000
 C        3.3299240000       -2.0915060000        0.9402640000
 C        4.1375560000       -3.1920500000        1.1461040000
 C        5.3062010000       -3.3545410000        0.3778880000
 C        5.6685160000       -2.3922970000       -0.5918180000
 C        4.8814280000       -1.2729430000       -0.7795510000
 H        5.1595540000       -0.5437240000       -1.5440480000
 H        2.4541460000       -1.9398940000        1.5755810000
 H        3.8877530000       -3.9248930000        1.9166390000
 H        5.9479500000       -4.2253570000        0.5412420000
 H        6.5715980000       -2.5374170000       -1.1896850000

