%nproc=8
%mem=18000mb
#P PBE1PBE DEF2TZVPP OPT FREQ SCF(tight) INT(ultrafine)

 6-hydroxy-3c_2c_gn

 2 1
 C        0.5093380000        1.7870480000        0.4917840000
 C       -2.5296070000       -2.1124290000        0.2364530000
 C       -1.1381240000       -1.9861350000        0.2517890000
 C        2.7616410000        0.9110360000        0.2034470000
 N        1.4320180000        0.6812510000        0.2123830000
 H        3.0802900000        1.9396880000        0.3888280000
 C       -3.3162770000       -0.9885650000        0.0057800000
 C        0.9168690000       -0.5626010000       -0.0058110000
 C       -0.5487610000       -0.7447330000        0.0389440000
 C        3.6617640000       -0.1136660000       -0.0313020000
 C       -2.6917800000        0.2360910000       -0.1845620000
 H       -4.4068960000       -1.0443360000       -0.0229990000
 C        1.7914000000       -1.6128120000       -0.2665390000
 C        3.1695240000       -1.3936950000       -0.2757390000
 N       -1.3528100000        0.3381620000       -0.1525260000
 H        4.7325360000        0.1030530000       -0.0330320000
 C       -0.7156560000        1.6984990000       -0.3996710000
 H       -3.2341030000        1.1669950000       -0.3685760000
 O       -1.6033460000        2.6999090000       -0.2187520000
 H       -0.4252930000        1.6930270000       -1.4649460000
 H       -1.6866960000        2.9830090000        0.7045650000
 H        1.0211360000        2.7377200000        0.2935230000
 H        0.2246960000        1.7555730000        1.5585410000
 H       -2.9900150000       -3.0895220000        0.4064140000
 H       -0.5171570000       -2.8602970000        0.4510880000
 H        3.8526410000       -2.2221310000       -0.4826960000
 H        1.3991840000       -2.6061700000       -0.4871370000

