%nproc=8
%mem=18000mb
#P PBE1PBE DEF2TZVPP OPT FREQ SCF(tight) INT(ultrafine)

 14-nq-2-ch2ococh3_n_gn

 0 1
 C        4.5384350000        0.2555160000        0.0000380000
 C        4.2820320000       -1.1182460000        0.0000450000
 C        3.4839490000        1.1645790000        0.0000100000
 C        2.1670390000        0.7028110000       -0.0000100000
 C        2.9708150000       -1.5851830000        0.0000260000
 C        1.9090300000       -0.6776910000       -0.0000020000
 C        1.0427910000        1.6809820000       -0.0000420000
 C       -0.3296540000        1.1340710000       -0.0000310000
 C        0.5133230000       -1.1894440000       -0.0000220000
 C       -0.5908760000       -0.1870010000       -0.0000240000
 H        5.5695080000        0.6173320000        0.0000530000
 H        3.6526350000        2.2436700000        0.0000030000
 H        5.1127190000       -1.8280620000        0.0000660000
 H        2.7407750000       -2.6528440000        0.0000310000
 H       -1.1378810000        1.8680940000       -0.0000320000
 O        1.2359270000        2.8808150000       -0.0000200000
 O        0.2592410000       -2.3784610000        0.0000040000
 C       -1.9657520000       -0.7668160000       -0.0000200000
 O       -2.9205730000        0.2734070000       -0.0000190000
 H       -2.1021690000       -1.4241950000        0.8756410000
 H       -2.1021750000       -1.4241980000       -0.8756780000
 C       -4.2131930000       -0.1082620000       -0.0000460000
 O       -4.5500480000       -1.2601250000        0.0000070000
 C       -5.1252020000        1.0817290000        0.0000600000
 H       -4.9295660000        1.7043030000       -0.8851890000
 H       -4.9294420000        1.7042500000        0.8853190000
 H       -6.1672010000        0.7442860000        0.0001230000

