%nproc=8
%mem=18000mb
#P PBE1PBE DEF2TZVPP OPT FREQ SCF(tight) INT(ultrafine)

 14-nq-2-ch2ococh3_n_rd

-1 2
 C        4.2972670000        0.3741190000        0.5448670000
 C        4.0971920000       -1.0187390000        0.5031550000
 C        3.2389970000        1.2307300000        0.2923100000
 C        1.9588480000        0.7306580000       -0.0064200000
 C        2.8430020000       -1.5271600000        0.2098290000
 C        1.7569600000       -0.6704890000       -0.0484600000
 C        0.8565970000        1.6774080000       -0.2739570000
 C       -0.4080810000        1.0670070000       -0.5738370000
 C        0.4374590000       -1.2558730000       -0.3529390000
 C       -0.6213100000       -0.3030990000       -0.6095180000
 H        5.2883910000        0.7770540000        0.7765400000
 H        3.3481750000        2.3183330000        0.3127300000
 H        4.9327870000       -1.6972210000        0.7023720000
 H        2.6445500000       -2.6012620000        0.1672400000
 H       -1.2347990000        1.7549420000       -0.7814170000
 O        1.0347700000        2.9135520000       -0.2403810000
 O        0.2690590000       -2.4941110000       -0.3934230000
 C       -1.9750360000       -0.8660940000       -0.8978530000
 O       -2.8395750000       -0.7855250000        0.2644120000
 H       -1.8705870000       -1.9384470000       -1.1076200000
 H       -2.4794150000       -0.3421760000       -1.7210940000
 C       -3.8304220000        0.0940310000        0.2683010000
 O       -4.1537260000        0.7952380000       -0.6602850000
 C       -4.5082680000        0.1186380000        1.6153120000
 H       -4.6745720000       -0.9027410000        1.9845400000
 H       -5.4538900000        0.6690860000        1.5450490000
 H       -3.8441060000        0.6223940000        2.3343480000

