%nproc=8
%mem=18000mb
#P PBE1PBE DEF2TZVPP OPT FREQ SCF(tight) INT(ultrafine)

 i47di-12-ch23-56-met_n_gn

 0 1
 C        2.1081220000        0.9154030000        0.0042550000
 C        2.4309680000       -0.4079440000        0.0166270000
 C        0.6849510000        1.3965240000       -0.0219640000
 C       -0.3271440000        0.3501690000       -0.0341510000
 C        1.3923210000       -1.4955500000        0.0058110000
 C        0.0053990000       -1.0372140000       -0.0221010000
 C       -1.7071220000        0.4270230000       -0.0443220000
 C       -1.1745180000       -1.7614510000       -0.0290360000
 N       -2.1884790000       -0.8499870000       -0.0352180000
 H       -1.3428980000       -2.8358030000       -0.0190210000
 C        3.8527000000       -0.8704320000        0.0424950000
 C        3.1552150000        1.9826280000        0.0157160000
 H        3.7961620000        1.9030200000        0.9090240000
 H        2.6809840000        2.9721410000        0.0056480000
 H        3.8211440000        1.8973230000       -0.8586540000
 H        4.4087910000       -0.4985700000       -0.8336680000
 H        3.8897280000       -1.9670590000        0.0476880000
 H        4.3788940000       -0.4915290000        0.9340040000
 C       -2.8313370000        1.4020390000       -0.1009920000
 C       -4.0389070000        0.5200150000        0.2817350000
 H       -2.9287350000        1.8142430000       -1.1207770000
 H       -2.6821380000        2.2594780000        0.5696350000
 C       -3.6367530000       -0.9147960000       -0.1021210000
 H       -4.9734090000        0.8310200000       -0.2048740000
 H       -4.2000810000        0.5718000000        1.3694540000
 H       -3.9553600000       -1.1796400000       -1.1252270000
 H       -4.0332350000       -1.6761590000        0.5852520000
 O        0.4144710000        2.5867100000       -0.0294920000
 O        1.7075470000       -2.6728170000        0.0190330000

