%nproc=8
%mem=18000mb
#P PBE1PBE DEF2TZVPP OPT FREQ SCF(tight) INT(ultrafine)

 i47di-12-ch23-56-met_n_ox

 1 2
 C       -2.1419580000        0.9133120000       -0.0036250000
 C       -2.4584990000       -0.4181100000       -0.0139940000
 C       -0.7299670000        1.3897380000        0.0168600000
 C        0.3008540000        0.3311180000        0.0279890000
 C       -1.4137740000       -1.4829680000       -0.0063340000
 C       -0.0130690000       -1.0053290000        0.0170680000
 C        1.7276570000        0.4183360000        0.0383750000
 C        1.2135810000       -1.7521860000        0.0235670000
 N        2.2210250000       -0.8553040000        0.0315970000
 H        1.3651840000       -2.8329500000        0.0203170000
 C       -3.8721630000       -0.8935520000       -0.0349570000
 C       -3.1897070000        1.9750460000       -0.0124800000
 H       -3.8300660000        1.8869880000       -0.9048850000
 H       -2.7353650000        2.9730150000       -0.0019830000
 H       -3.8532050000        1.8789010000        0.8620100000
 H       -4.4242010000       -0.5211200000        0.8429800000
 H       -3.9165820000       -1.9891880000       -0.0405890000
 H       -4.4005860000       -0.5132530000       -0.9239950000
 C        2.8148960000        1.4029190000        0.0852580000
 C        4.0638550000        0.5565600000       -0.2431130000
 H        2.8403770000        1.8425030000        1.1032310000
 H        2.6309010000        2.2568100000       -0.5858150000
 C        3.6869870000       -0.8999560000        0.0875450000
 H        4.9508550000        0.8820070000        0.3144890000
 H        4.2987650000        0.6483860000       -1.3135390000
 H        3.9948910000       -1.2053650000        1.0999910000
 H        4.0773160000       -1.6314030000       -0.6326830000
 O       -0.4051160000        2.5582760000        0.0243830000
 O       -1.6545860000       -2.6704980000       -0.0185900000

