%nproc=8
%mem=18000mb
#P PBE1PBE DEF2TZVPP OPT FREQ SCF(tight) INT(ultrafine)

 i47di-12-ch23-56-met_n_rd

-1 2
 C        2.0565780000        0.9414550000        0.0021110000
 C        2.3972160000       -0.4219300000        0.0137860000
 C        0.6896850000        1.4193540000       -0.0174430000
 C       -0.3071900000        0.3555330000       -0.0279460000
 C        1.4223020000       -1.4957820000        0.0064850000
 C        0.0349140000       -1.0379720000       -0.0188520000
 C       -1.6910830000        0.4190860000       -0.0335200000
 C       -1.1483830000       -1.7710180000       -0.0252650000
 N       -2.1711880000       -0.8630640000       -0.0227680000
 H       -1.3102310000       -2.8461220000       -0.0081470000
 C        3.8359330000       -0.8489670000        0.0362930000
 C        3.1210810000        1.9993390000        0.0121230000
 H        3.7932460000        1.9284520000       -0.8629450000
 H        3.7694100000        1.9357990000        0.9055420000
 H        2.6304330000        2.9836630000        0.0016850000
 H        4.3974870000       -0.4800820000       -0.8418150000
 H        3.8701000000       -1.9482060000        0.0419560000
 H        4.3722680000       -0.4720030000        0.9266710000
 C       -2.8215090000        1.3873320000       -0.1105060000
 C       -4.0217650000        0.4993510000        0.2806970000
 H       -2.9372170000        1.7909200000       -1.1346490000
 H       -2.6822210000        2.2558820000        0.5492130000
 C       -3.6071140000       -0.9297060000       -0.1151910000
 H       -4.9688930000        0.8035040000       -0.1912690000
 H       -4.1666190000        0.5408100000        1.3722640000
 H       -3.9259900000       -1.1775090000       -1.1465430000
 H       -4.0241110000       -1.7003880000        0.5538150000
 O        0.3598550000        2.6311590000       -0.0220340000
 O        1.7172260000       -2.7148740000        0.0191540000

