%nproc=8
%mem=18000mb
#P PBE1PBE DEF2TZVPP OPT FREQ SCF(tight) INT(ultrafine)

 14-nq-2-hydroxymethyl_n_gn

 0 1
 C       -3.1939310000       -1.1747390000        0.0000390000
 C       -3.4721210000        0.1947430000        0.0000430000
 C       -1.8752550000       -1.6201220000        0.0000140000
 C       -2.4320350000        1.1203440000        0.0000210000
 H       -4.0131990000       -1.8977700000        0.0000570000
 H       -4.5088330000        0.5402170000        0.0000610000
 C       -0.8279530000       -0.6959620000       -0.0000050000
 C       -1.1078220000        0.6802710000       -0.0000060000
 H       -1.6276170000       -2.6838580000        0.0000140000
 H       -2.6173080000        2.1967400000        0.0000180000
 C        0.5768150000       -1.1844620000       -0.0000140000
 C        1.6603400000       -0.1633440000       -0.0000180000
 C        1.3803390000        1.1541390000       -0.0000170000
 C        0.0009170000        1.6786860000       -0.0000540000
 O        0.8485870000       -2.3705680000       -0.0000610000
 O       -0.2176800000        2.8744070000        0.0000520000
 H        2.1856560000        1.8916360000       -0.0000000000
 C        3.0562950000       -0.6943700000       -0.0000110000
 O        3.9694630000        0.3593300000        0.0000130000
 H        3.1633210000       -1.3587280000       -0.8817170000
 H        3.1633010000       -1.3587470000        0.8816850000
 H        4.8581860000       -0.0059600000       -0.0001010000

