%nproc=8
%mem=18000mb
#P PBE1PBE DEF2TZVPP OPT FREQ SCF(tight) INT(ultrafine)

 14-nq-2-hydroxymethyl_n_ox

 1 2
 C       -3.2061490000       -1.1362050000        0.0003590000
 C       -3.4759570000        0.2325300000        0.0004140000
 C       -1.8874270000       -1.6029020000        0.0001440000
 C       -2.4303040000        1.1519340000        0.0002040000
 H       -4.0308520000       -1.8529090000        0.0005080000
 H       -4.5080280000        0.5898040000        0.0006350000
 C       -0.8304250000       -0.6995000000       -0.0000590000
 C       -1.1106280000        0.6789350000       -0.0000160000
 H       -1.6578850000       -2.6714020000        0.0001590000
 H       -2.6351360000        2.2250620000        0.0002610000
 C        0.5678490000       -1.2083600000       -0.0000910000
 C        1.6635790000       -0.1803400000       -0.0000320000
 C        1.4040120000        1.1456530000       -0.0000220000
 C        0.0230560000        1.6092600000       -0.0003890000
 O        0.8346630000       -2.3846610000       -0.0010630000
 O       -0.1794780000        2.8323820000       -0.0003400000
 H        2.2046620000        1.8865910000        0.0000340000
 C        3.0612340000       -0.6816800000        0.0003290000
 O        3.9433210000        0.3793330000        0.0003570000
 H        3.1577970000       -1.3530650000       -0.8807700000
 H        3.1575350000       -1.3528860000        0.8815820000
 H        4.8508140000        0.0564230000        0.0009000000

