%nproc=8
%mem=18000mb
#P PBE1PBE DEF2TZVPP OPT FREQ SCF(tight) INT(ultrafine)

 11-bis-carbamylmethyl-3l_2c_gn

 2 1
 N        3.4256850000        0.0196920000       -0.7845570000
 C        2.8667240000       -1.0783520000       -0.2365080000
 C        1.5154950000       -1.1063790000        0.0674900000
 C        2.6875810000        1.1245890000       -1.0179840000
 C        1.3401340000        1.1548310000       -0.7216920000
 C        0.7229660000        0.0225090000       -0.1642510000
 C       -0.7229820000        0.0225820000        0.1642700000
 C       -1.5155190000       -1.1063980000       -0.0669950000
 C       -1.3401470000        1.1551480000        0.7212210000
 C       -2.6875970000        1.1250420000        1.0175170000
 C       -2.8667480000       -1.0782320000        0.2369840000
 N       -3.4257040000        0.0200470000        0.7845660000
 H       -3.2061970000        1.9811800000        1.4529200000
 H       -0.7784250000        2.0616660000        0.9531230000
 H       -1.1082250000       -2.0135580000       -0.5165880000
 H       -3.5194920000       -1.9327440000        0.0626180000
 H        0.7784160000        2.0612520000       -0.9539840000
 H        3.2061830000        1.9805350000       -1.4537610000
 H        3.5194580000       -1.9328000000       -0.0617940000
 H        1.1081950000       -2.0133480000        0.5174640000
 C        4.8727420000        0.0341990000       -0.9768040000
 C        5.5539370000       -0.0622530000        0.4134970000
 H        5.1522010000        0.9419420000       -1.5268990000
 H        5.1650960000       -0.8371480000       -1.5833830000
 O        4.9168170000       -0.4818620000        1.3551380000
 N        6.8381860000        0.3039730000        0.4365230000
 C       -4.8727620000        0.0346470000        0.9767850000
 C       -5.5539120000       -0.0624640000       -0.4134890000
 H       -5.1522330000        0.9426500000        1.5264450000
 H       -5.1651290000       -0.8364160000        1.5837640000
 N       -6.8381360000        0.3038390000       -0.4367500000
 O       -4.9167720000       -0.4825690000       -1.3548940000
 H        7.3377100000        0.6501450000       -0.3726930000
 H        7.3528620000        0.2012710000        1.3063070000
 H       -7.3376800000        0.6504110000        0.3722830000
 H       -7.3527850000        0.2007310000       -1.3065010000

