%nproc=8
%mem=18000mb
#P PBE1PBE DEF2TZVPP OPT FREQ SCF(tight) INT(ultrafine)

 11-bis-carbamylmethyl-3l_2c_rd

 1 2
 N        3.4740530000        0.1830620000       -0.7033970000
 C        2.7958640000       -0.9920930000       -0.5527550000
 C        1.4564830000       -1.0169400000       -0.2924280000
 C        2.7975530000        1.3584370000       -0.5473530000
 C        1.4601800000        1.3881140000       -0.2813450000
 C        0.7010170000        0.1855110000       -0.1383540000
 C       -0.7010190000        0.1855080000        0.1383600000
 C       -1.4564820000       -1.0169480000        0.2924220000
 C       -1.4601860000        1.3881070000        0.2813630000
 C       -2.7975580000        1.3584230000        0.5473710000
 C       -2.7958620000       -0.9921070000        0.5527490000
 N       -3.4740550000        0.1830450000        0.7034030000
 H       -3.3854980000        2.2709360000        0.6547860000
 H       -0.9974860000        2.3689480000        0.1805970000
 H       -0.9901050000       -1.9965630000        0.1999390000
 H       -3.3842360000       -1.9036200000        0.6508320000
 H        0.9974770000        2.3689530000       -0.1805680000
 H        3.3854900000        2.2709530000       -0.6547590000
 H        3.3842400000       -1.9036040000       -0.6508480000
 H        0.9901090000       -1.9965580000       -0.1999550000
 C        4.9059630000        0.1665720000       -0.9015610000
 C        5.6348040000       -0.3062560000        0.3692850000
 H        5.2348300000        1.1695760000       -1.2071100000
 H        5.1569510000       -0.5222550000       -1.7251370000
 O        5.0410770000       -0.9119240000        1.2317980000
 N        6.9531000000       -0.0280190000        0.3945460000
 C       -4.9059650000        0.1665490000        0.9015660000
 C       -5.6348060000       -0.3062690000       -0.3692840000
 H       -5.2348340000        1.1695480000        1.2071270000
 H       -5.1569520000       -0.5222890000        1.7251340000
 N       -6.9530940000       -0.0279990000       -0.3945610000
 O       -5.0410710000       -0.9119020000       -1.2318170000
 H        7.4246950000        0.4891350000       -0.3341110000
 H        7.5000300000       -0.3660110000        1.1778710000
 H       -7.4246880000        0.4891520000        0.3340990000
 H       -7.5000190000       -0.3659570000       -1.1779040000

