%nproc=8
%mem=18000mb
#P PBE1PBE DEF2TZVPP OPT FREQ SCF(tight) INT(ultrafine)

 1-methoxy-7a_n_gn

 0 1
 C       -3.5970020000        1.7033440000        0.3155930000
 C       -4.1285920000        0.4258250000        0.4703430000
 C       -2.2517660000        1.8697300000       -0.0062010000
 C       -1.4213960000        0.7619740000       -0.2134380000
 C       -1.9680500000       -0.5278060000       -0.0745280000
 C       -3.3046480000       -0.6852110000        0.2865260000
 H       -4.2276160000        2.5840630000        0.4577630000
 H       -1.8301510000        2.8738810000       -0.1066890000
 H       -5.1792110000        0.2882010000        0.7338580000
 H       -3.7039490000       -1.6954140000        0.4072800000
 N       -0.0830230000        0.9302950000       -0.5395550000
 C        0.8968380000        0.0033360000       -0.2125960000
 C        0.6176060000       -1.3591490000       -0.0777810000
 S       -1.0001480000       -1.9565150000       -0.4781290000
 C        2.2146450000        0.4559600000        0.0082940000
 C        3.2253750000       -0.4469690000        0.3328520000
 C        2.9237720000       -1.8038990000        0.4720310000
 C        1.6247460000       -2.2597080000        0.2809350000
 H        4.2464380000       -0.0989650000        0.4906940000
 H        1.3808660000       -3.3180240000        0.3948020000
 H        0.2565850000        1.8840080000       -0.5678150000
 H        3.7161160000       -2.5080840000        0.7340530000
 O        2.3787630000        1.7950370000       -0.1372270000
 C        3.6548630000        2.3444120000        0.0396740000
 H        3.5597220000        3.4255390000       -0.1234890000
 H        4.3792690000        1.9360900000       -0.6866820000
 H        4.0370110000        2.1695610000        1.0607750000

