%nproc=8
%mem=18000mb
#P PBE1PBE DEF2TZVPP OPT FREQ SCF(tight) INT(ultrafine)

 1-carbamylmethyl-3q_2c_ox

 3 2
 N       -2.3939170000        0.3756610000        0.4533330000
 C       -1.7412620000       -0.6841390000        0.9982630000
 C       -0.3728380000       -0.8159830000        0.8667610000
 C       -1.7044110000        1.3274290000       -0.2289130000
 C       -0.3330780000        1.2431400000       -0.3723530000
 C        0.3761570000        0.1603420000        0.1790730000
 C        1.8522810000        0.0560570000        0.0552500000
 C        2.4807440000       -1.1853480000       -0.1149310000
 C        3.8622680000       -1.2487550000       -0.2296060000
 N        4.6157220000       -0.1361590000       -0.1664580000
 C        2.6655610000        1.1997310000        0.1098250000
 C        4.0401330000        1.0713400000        0.0030850000
 H       -2.3359830000       -1.4082270000        1.5625470000
 H        0.1039010000       -1.6739580000        1.3472460000
 H       -2.2754410000        2.1592780000       -0.6502480000
 H        0.1680000000        2.0308140000       -0.9402930000
 H        1.9213800000       -2.1200540000       -0.1934310000
 H        4.3874950000       -2.1958050000       -0.3751080000
 H        4.7103640000        1.9336650000        0.0538110000
 H        2.2584530000        2.2006970000        0.2682840000
 C        6.0864300000       -0.2202610000       -0.2779600000
 H        6.3799050000       -1.2637470000       -0.4347700000
 H        6.5383950000        0.1562940000        0.6505940000
 H        6.4173070000        0.3893690000       -1.1303810000
 C       -3.8365340000        0.5126480000        0.6350930000
 C       -4.7104270000       -0.3086430000       -0.3459870000
 H       -4.1276230000        1.5696330000        0.5241120000
 H       -4.1222930000        0.1789150000        1.6487240000
 N       -5.9560470000       -0.0173680000       -0.5487990000
 O       -4.1148280000       -1.2927050000       -0.8635000000
 H       -6.4051720000        0.7905700000       -0.1106530000
 H       -6.5505060000       -0.6060860000       -1.1445640000

