%nproc=8
%mem=18000mb
#P PBE1PBE DEF2TZVPP OPT FREQ SCF(tight) INT(ultrafine)

 mitomycinC_n_gn

 0 1
 C       -3.0503320000       -1.6952310000       -0.0668340000
 C       -3.6979420000       -0.4975150000        0.1395400000
 C       -1.5470170000       -1.8197530000       -0.2998120000
 C       -0.8036640000       -0.6136600000       -0.1743040000
 C       -1.4421510000        0.5767470000        0.0643570000
 C       -2.9310350000        0.7279430000        0.1965960000
 O       -1.0990110000       -2.9263770000       -0.5918090000
 O       -3.4114520000        1.8462710000        0.3390880000
 N       -3.6535720000       -2.8880140000       -0.1209130000
 C       -5.1831400000       -0.4224240000        0.3107110000
 H       -5.7231810000       -0.8386040000       -0.5583130000
 H       -5.4840650000        0.6276430000        0.4231080000
 H       -5.5260090000       -0.9687470000        1.2073310000
 C        0.6500830000       -0.3347240000       -0.4705670000
 C        0.8098140000        1.1223780000        0.0794990000
 N       -0.5813980000        1.6043900000        0.1467710000
 C       -0.7508310000        2.9868590000       -0.2706230000
 C        0.5115080000        3.2526220000       -1.0770410000
 H       -0.8147430000        3.6653310000        0.5944490000
 H       -1.6720250000        3.0929110000       -0.8570520000
 C        1.4649890000        2.1344270000       -0.8632600000
 N        1.6957960000        3.4395730000       -0.2596850000
 H        2.1218180000        1.7663040000       -1.6564510000
 H        0.4339530000        3.7591250000       -2.0442470000
 O        1.2919450000        1.1297300000        1.3894340000
 C        2.6619780000        1.3611770000        1.6229670000
 H        2.8888820000        2.4382940000        1.6164940000
 H        3.3066380000        0.8484460000        0.8911930000
 H        2.8833020000        0.9519750000        2.6190170000
 H        2.4193640000        3.9426140000       -0.7714460000
 H       -4.6508530000       -2.9970910000       -0.0236550000
 H       -3.0510550000       -3.6779930000       -0.3366220000
 C        1.6078240000       -1.3576960000        0.0943260000
 H        0.7873070000       -0.3219380000       -1.5691300000
 O        2.8993630000       -1.0998850000       -0.4551020000
 H        1.2741470000       -2.3667770000       -0.1879600000
 H        1.6441580000       -1.3031370000        1.1920680000
 C        3.8887510000       -1.9118560000       -0.0288560000
 O        3.7403420000       -2.8087950000        0.7614790000
 N        5.0715210000       -1.5448620000       -0.5925810000
 H        5.0791700000       -0.9108710000       -1.3780320000
 H        5.8542640000       -2.1684110000       -0.4608030000

