%nproc=8
%mem=18000mb
#P PBE1PBE DEF2TZVPP OPT(calcall) FREQ SCF(tight) INT(ultrafine)

 1-benzyl-3q_2c_gn

 2 1
 N       -1.4573030000        1.1294730000       -0.2144020000
 C       -1.1066880000       -0.1378690000        0.0496070000
 C        0.2287350000       -0.5091550000        0.1136500000
 C        1.2306270000        0.4459930000       -0.0911900000
 C       -0.5162700000        2.0715000000       -0.4201690000
 C        0.8294980000        1.7642870000       -0.3613610000
 C        2.6670800000        0.0806650000       -0.0249870000
 C        3.1319030000       -1.1359080000       -0.5418420000
 C        4.4787420000       -1.4485500000       -0.4693560000
 N        5.3586760000       -0.6032270000        0.0987700000
 C        3.6102620000        0.9417250000        0.5575670000
 C        4.9412780000        0.5736990000        0.6083730000
 H       -1.9300780000       -0.8390400000        0.2099210000
 H        0.4632040000       -1.5482240000        0.3527970000
 H        1.5519670000        2.5592240000       -0.5560140000
 H       -0.8740170000        3.0808680000       -0.6376150000
 H        2.4631380000       -1.8464840000       -1.0312690000
 H        4.8798190000       -2.3817780000       -0.8698500000
 H        5.7052350000        1.2096380000        1.0616240000
 H        3.3208850000        1.8959220000        1.0020280000
 C        6.7887380000       -0.9494580000        0.1736110000
 H        6.9496420000       -1.9284020000       -0.2901060000
 H        7.0976610000       -0.9874900000        1.2270130000
 H        7.3742350000       -0.1897260000       -0.3615340000
 C       -2.9106160000        1.5481850000       -0.2886690000
 C       -3.8814800000        0.4350130000       -0.0718560000
 H       -3.0305750000        2.0031550000       -1.2830030000
 H       -3.0239220000        2.3386220000        0.4681050000
 C       -4.3493800000        0.1478140000        1.2186200000
 C       -4.3428650000       -0.3207830000       -1.1594220000
 C       -5.2533310000       -1.3549090000       -0.9560120000
 C       -5.7098530000       -1.6386770000        0.3317660000
 C       -5.2599000000       -0.8872030000        1.4179830000
 H       -5.6333730000       -1.0976130000        2.4225040000
 H       -4.0191060000        0.7493800000        2.0709460000
 H       -4.0078200000       -0.0869090000       -2.1745500000
 H       -5.6220590000       -1.9308740000       -1.8075620000
 H       -6.4333330000       -2.4421880000        0.4881090000

