%nproc=8
%mem=18000mb
#P PBE1PBE DEF2TZVPP OPT FREQ SCF(tight) INT(ultrafine)

 11-bis-2-oxopropyl-22-dimethyl-3p_2c_ox

 3 2
 N       -3.5202210000        0.0962290000       -0.5566490000
 C       -2.9029630000       -0.9553040000       -1.1536490000
 C       -1.5331450000       -1.0849760000       -1.1563230000
 C       -0.7484510000       -0.0997670000       -0.5315940000
 C       -2.8058030000        1.0728650000        0.0781600000
 C       -1.4120970000        0.9707280000        0.0752760000
 C        0.7345750000       -0.2004000000       -0.5164620000
 C        1.3726130000       -1.4403310000       -0.3380070000
 C        2.7475030000       -1.4941560000       -0.3310000000
 N        3.5072820000       -0.3835120000       -0.5102040000
 C        2.9382590000        0.8460870000       -0.6872790000
 C        1.5431090000        0.9274980000       -0.6867440000
 H       -3.5468640000       -1.6891150000       -1.6437900000
 H       -1.0953390000       -1.9400670000       -1.6751870000
 H       -0.8558780000        1.7511700000        0.5978430000
 H        0.8175760000       -2.3666160000       -0.1769220000
 H        3.2811560000       -2.4362650000       -0.1862030000
 H        1.1031250000        1.9117010000       -0.8578760000
 C       -4.9795810000        0.1178170000       -0.5637100000
 C       -5.6170110000       -0.5081460000        0.7057130000
 H       -5.3574580000        1.1481910000       -0.6434570000
 H       -5.3565110000       -0.4371890000       -1.4366120000
 C       -7.1057580000       -0.6822240000        0.6988540000
 H       -7.4844650000       -0.6706870000        1.7302220000
 H       -7.3081250000       -1.6805330000        0.2670440000
 H       -7.5964260000        0.0792590000        0.0758030000
 O       -4.9035190000       -0.8297680000        1.6137630000
 C       -3.5045040000        2.2102310000        0.7355860000
 H       -2.7763670000        2.8763900000        1.2131470000
 H       -4.0717450000        2.8139830000        0.0066640000
 H       -4.1983800000        1.8684800000        1.5197550000
 C        4.9574990000       -0.5380820000       -0.4511080000
 C        5.5564100000       -0.2521320000        0.9519580000
 H        5.4543600000        0.1394320000       -1.1619580000
 H        5.2344980000       -1.5661650000       -0.7307870000
 C        7.0099880000       -0.5636340000        1.1427260000
 H        7.0695600000       -1.6171860000        1.4751550000
 H        7.4236630000        0.0717390000        1.9379380000
 H        7.5702900000       -0.4568440000        0.2027480000
 O        4.8412560000        0.1860910000        1.8085560000
 C        3.7910450000        2.0469980000       -0.8976380000
 H        4.3923100000        1.9597590000       -1.8188850000
 H        4.4736920000        2.2210180000       -0.0510620000
 H        3.1658790000        2.9415110000       -1.0027140000

