c1(ccc(O)cc1)OC
                    3D

 17 17  0  0  0  0  0  0  0  0999 V2000
    0.4793    0.0677   -0.6238 C   0  0  0  0  0  0  0  0  0  0  0  0
   -0.6484    0.3856   -1.3846 C   0  0  0  0  0  0  0  0  0  0  0  0
   -1.9152    0.4142   -0.7895 C   0  0  0  0  0  0  0  0  0  0  0  0
   -2.0459    0.1252    0.5650 C   0  0  0  0  0  0  0  0  0  0  0  0
   -3.2612    0.1406    1.1818 O   0  0  0  0  0  0  0  0  0  0  0  0
   -0.9332   -0.1895    1.3329 C   0  0  0  0  0  0  0  0  0  0  0  0
    0.3283   -0.2183    0.7364 C   0  0  0  0  0  0  0  0  0  0  0  0
    1.7667    0.0037   -1.0810 O   0  0  0  0  0  0  0  0  0  0  0  0
    1.9725    0.2599   -2.4642 C   0  0  0  0  0  0  0  0  0  0  0  0
   -0.5765    0.6167   -2.4420 H   0  0  0  0  0  0  0  0  0  0  0  0
   -2.7799    0.6625   -1.3967 H   0  0  0  0  0  0  0  0  0  0  0  0
   -3.9400    0.3678    0.5258 H   0  0  0  0  0  0  0  0  0  0  0  0
   -1.0440   -0.4127    2.3899 H   0  0  0  0  0  0  0  0  0  0  0  0
    1.2009   -0.4660    1.3356 H   0  0  0  0  0  0  0  0  0  0  0  0
    1.6789    1.2822   -2.7239 H   0  0  0  0  0  0  0  0  0  0  0  0
    3.0430    0.1598   -2.6672 H   0  0  0  0  0  0  0  0  0  0  0  0
    1.4463   -0.4732   -3.0846 H   0  0  0  0  0  0  0  0  0  0  0  0
  2  1  2  0  0  0  0
  3  2  1  0  0  0  0
  4  3  2  0  0  0  0
  5  4  1  0  0  0  0
  6  4  1  0  0  0  0
  7  6  2  0  0  0  0
  7  1  1  0  0  0  0
  8  1  1  0  0  0  0
  9  8  1  0  0  0  0
  2 10  1  0  0  0  0
  3 11  1  0  0  0  0
  5 12  1  0  0  0  0
  6 13  1  0  0  0  0
  7 14  1  0  0  0  0
  9 15  1  0  0  0  0
  9 16  1  0  0  0  0
  9 17  1  0  0  0  0
M  END
>  <energy>
8.996958864426233

$$$$
