C1=CN2C(=CC1)C1=CCC=C(N1CC2)c1ncccc1
                    3D

 37 40  0  0  0  0  0  0  0  0999 V2000
   -4.5540   -0.3227   -1.4364 C   0  0  0  0  0  0  0  0  0  0  0  0
   -3.3337   -0.6300   -1.8980 C   0  0  0  0  0  0  0  0  0  0  0  0
   -2.1633   -0.3009   -1.2304 N   0  0  0  0  0  0  0  0  0  0  0  0
   -2.2101    0.4631   -0.0410 C   0  0  0  0  0  0  0  0  0  0  0  0
   -3.4054    0.7794    0.5042 C   0  0  0  0  0  0  0  0  0  0  0  0
   -4.7155    0.4180   -0.1422 C   0  0  0  0  0  0  0  0  0  0  0  0
   -0.9206    0.8589    0.5976 C   0  0  0  0  0  0  0  0  0  0  0  0
   -0.8295    1.9601    1.3728 C   0  0  0  0  0  0  0  0  0  0  0  0
    0.4541    2.4061    2.0004 C   0  0  0  0  0  0  0  0  0  0  0  0
    1.6160    1.5247    1.6693 C   0  0  0  0  0  0  0  0  0  0  0  0
    1.4875    0.4480    0.8675 C   0  0  0  0  0  0  0  0  0  0  0  0
    0.2404    0.0930    0.3100 N   0  0  0  0  0  0  0  0  0  0  0  0
    0.0625   -1.0976   -0.5496 C   0  0  0  0  0  0  0  0  0  0  0  0
   -0.8523   -0.7481   -1.7315 C   0  0  0  0  0  0  0  0  0  0  0  0
    2.7216   -0.3179    0.5512 C   0  0  0  0  0  0  0  0  0  0  0  0
    3.0491   -0.4314   -0.7639 N   0  0  0  0  0  0  0  0  0  0  0  0
    4.1759   -1.1073   -1.0699 C   0  0  0  0  0  0  0  0  0  0  0  0
    5.0146   -1.6748   -0.1254 C   0  0  0  0  0  0  0  0  0  0  0  0
    4.6709   -1.5511    1.2164 C   0  0  0  0  0  0  0  0  0  0  0  0
    3.5092   -0.8637    1.5631 C   0  0  0  0  0  0  0  0  0  0  0  0
   -5.4431   -0.6039   -1.9875 H   0  0  0  0  0  0  0  0  0  0  0  0
   -3.2037   -1.1685   -2.8314 H   0  0  0  0  0  0  0  0  0  0  0  0
   -3.4766    1.3119    1.4459 H   0  0  0  0  0  0  0  0  0  0  0  0
   -5.3038   -0.1921    0.5526 H   0  0  0  0  0  0  0  0  0  0  0  0
   -5.2783    1.3399   -0.3306 H   0  0  0  0  0  0  0  0  0  0  0  0
   -1.6869    2.5941    1.5618 H   0  0  0  0  0  0  0  0  0  0  0  0
    0.6780    3.4250    1.6658 H   0  0  0  0  0  0  0  0  0  0  0  0
    0.3257    2.4378    3.0874 H   0  0  0  0  0  0  0  0  0  0  0  0
    2.5788    1.8114    2.0798 H   0  0  0  0  0  0  0  0  0  0  0  0
    0.9943   -1.4945   -0.9542 H   0  0  0  0  0  0  0  0  0  0  0  0
   -0.3842   -1.8989    0.0537 H   0  0  0  0  0  0  0  0  0  0  0  0
   -0.4059    0.0473   -2.3406 H   0  0  0  0  0  0  0  0  0  0  0  0
   -0.9599   -1.6354   -2.3674 H   0  0  0  0  0  0  0  0  0  0  0  0
    4.3898   -1.1872   -2.1332 H   0  0  0  0  0  0  0  0  0  0  0  0
    5.9110   -2.2016   -0.4311 H   0  0  0  0  0  0  0  0  0  0  0  0
    5.3027   -1.9841    1.9860 H   0  0  0  0  0  0  0  0  0  0  0  0
    3.2244   -0.7593    2.6062 H   0  0  0  0  0  0  0  0  0  0  0  0
  2  1  2  0  0  0  0
  3  2  1  0  0  0  0
  4  3  1  0  0  0  0
  5  4  2  0  0  0  0
  6  5  1  0  0  0  0
  6  1  1  0  0  0  0
  7  4  1  0  0  0  0
  8  7  2  0  0  0  0
  9  8  1  0  0  0  0
 10  9  1  0  0  0  0
 11 10  2  0  0  0  0
 12 11  1  0  0  0  0
 12  7  1  0  0  0  0
 13 12  1  0  0  0  0
 14 13  1  0  0  0  0
 14  3  1  0  0  0  0
 15 11  1  0  0  0  0
 16 15  2  0  0  0  0
 17 16  1  0  0  0  0
 18 17  2  0  0  0  0
 19 18  1  0  0  0  0
 20 19  2  0  0  0  0
 20 15  1  0  0  0  0
  1 21  1  0  0  0  0
  2 22  1  0  0  0  0
  5 23  1  0  0  0  0
  6 24  1  0  0  0  0
  6 25  1  0  0  0  0
  8 26  1  0  0  0  0
  9 27  1  0  0  0  0
  9 28  1  0  0  0  0
 10 29  1  0  0  0  0
 13 30  1  0  0  0  0
 13 31  1  0  0  0  0
 14 32  1  0  0  0  0
 14 33  1  0  0  0  0
 17 34  1  0  0  0  0
 18 35  1  0  0  0  0
 19 36  1  0  0  0  0
 20 37  1  0  0  0  0
M  END
>  <energy>
50.061176969490312

$$$$
