C1=C(N2C(=CC1)C1=CCC=C(N1CC2)C)C
                    3D

 34 36  0  0  0  0  0  0  0  0999 V2000
    3.4239   -0.7000   -1.0087 C   0  0  0  0  0  0  0  0  0  0  0  0
    2.8712    0.2069   -0.1803 C   0  0  0  0  0  0  0  0  0  0  0  0
    1.4764    0.2534    0.0152 N   0  0  0  0  0  0  0  0  0  0  0  0
    0.6123   -0.5613   -0.7592 C   0  0  0  0  0  0  0  0  0  0  0  0
    1.1262   -1.5081   -1.5742 C   0  0  0  0  0  0  0  0  0  0  0  0
    2.5998   -1.6970   -1.7629 C   0  0  0  0  0  0  0  0  0  0  0  0
   -0.8615   -0.3854   -0.6095 C   0  0  0  0  0  0  0  0  0  0  0  0
   -1.7088   -0.6580   -1.6256 C   0  0  0  0  0  0  0  0  0  0  0  0
   -3.1927   -0.4991   -1.5058 C   0  0  0  0  0  0  0  0  0  0  0  0
   -3.6306   -0.0525   -0.1459 C   0  0  0  0  0  0  0  0  0  0  0  0
   -2.7504    0.2389    0.8312 C   0  0  0  0  0  0  0  0  0  0  0  0
   -1.3620    0.1381    0.6099 N   0  0  0  0  0  0  0  0  0  0  0  0
   -0.3740    0.5247    1.6359 C   0  0  0  0  0  0  0  0  0  0  0  0
    0.8513    1.1780    0.9815 C   0  0  0  0  0  0  0  0  0  0  0  0
   -3.2694    0.6654    2.1809 C   0  0  0  0  0  0  0  0  0  0  0  0
    3.7636    1.1948    0.5273 C   0  0  0  0  0  0  0  0  0  0  0  0
    4.4978   -0.7376   -1.1598 H   0  0  0  0  0  0  0  0  0  0  0  0
    0.4896   -2.1846   -2.1319 H   0  0  0  0  0  0  0  0  0  0  0  0
    2.8311   -1.6085   -2.8306 H   0  0  0  0  0  0  0  0  0  0  0  0
    2.8785   -2.7082   -1.4469 H   0  0  0  0  0  0  0  0  0  0  0  0
   -1.3485   -0.9989   -2.5889 H   0  0  0  0  0  0  0  0  0  0  0  0
   -3.5396    0.2248   -2.2515 H   0  0  0  0  0  0  0  0  0  0  0  0
   -3.6685   -1.4602   -1.7315 H   0  0  0  0  0  0  0  0  0  0  0  0
   -4.6995    0.0283    0.0220 H   0  0  0  0  0  0  0  0  0  0  0  0
   -0.7876    1.2453    2.3487 H   0  0  0  0  0  0  0  0  0  0  0  0
   -0.0778   -0.3678    2.2015 H   0  0  0  0  0  0  0  0  0  0  0  0
    1.5435    1.4526    1.7840 H   0  0  0  0  0  0  0  0  0  0  0  0
    0.5638    2.0997    0.4598 H   0  0  0  0  0  0  0  0  0  0  0  0
   -2.8528    0.0324    2.9715 H   0  0  0  0  0  0  0  0  0  0  0  0
   -4.3604    0.5861    2.2481 H   0  0  0  0  0  0  0  0  0  0  0  0
   -3.0073    1.7091    2.3819 H   0  0  0  0  0  0  0  0  0  0  0  0
    3.4227    2.2196    0.3468 H   0  0  0  0  0  0  0  0  0  0  0  0
    3.7701    1.0047    1.6052 H   0  0  0  0  0  0  0  0  0  0  0  0
    4.8011    1.1362    0.1798 H   0  0  0  0  0  0  0  0  0  0  0  0
  2  1  2  0  0  0  0
  3  2  1  0  0  0  0
  4  3  1  0  0  0  0
  5  4  2  0  0  0  0
  6  5  1  0  0  0  0
  6  1  1  0  0  0  0
  7  4  1  0  0  0  0
  8  7  2  0  0  0  0
  9  8  1  0  0  0  0
 10  9  1  0  0  0  0
 11 10  2  0  0  0  0
 12 11  1  0  0  0  0
 12  7  1  0  0  0  0
 13 12  1  0  0  0  0
 14 13  1  0  0  0  0
 14  3  1  0  0  0  0
 15 11  1  0  0  0  0
 16  2  1  0  0  0  0
  1 17  1  0  0  0  0
  5 18  1  0  0  0  0
  6 19  1  0  0  0  0
  6 20  1  0  0  0  0
  8 21  1  0  0  0  0
  9 22  1  0  0  0  0
  9 23  1  0  0  0  0
 10 24  1  0  0  0  0
 13 25  1  0  0  0  0
 13 26  1  0  0  0  0
 14 27  1  0  0  0  0
 14 28  1  0  0  0  0
 15 29  1  0  0  0  0
 15 30  1  0  0  0  0
 15 31  1  0  0  0  0
 16 32  1  0  0  0  0
 16 33  1  0  0  0  0
 16 34  1  0  0  0  0
M  END
>  <energy>
23.641872992709796

$$$$
