S(SC)C
                    3D

 10  9  0  0  0  0  0  0  0  0999 V2000
    1.2436   -0.2684    1.3058 S   0  0  0  0  0  0  0  0  0  0  0  0
   -0.6376   -0.5635    0.5272 S   0  0  0  0  0  0  0  0  0  0  0  0
   -0.4407   -2.1397   -0.3409 C   0  0  0  0  0  0  0  0  0  0  0  0
    2.1036    0.5152   -0.0807 C   0  0  0  0  0  0  0  0  0  0  0  0
   -1.3928   -2.4108   -0.8054 H   0  0  0  0  0  0  0  0  0  0  0  0
   -0.1629   -2.9320    0.3595 H   0  0  0  0  0  0  0  0  0  0  0  0
    0.3129   -2.0568   -1.1284 H   0  0  0  0  0  0  0  0  0  0  0  0
    1.6200    1.4581   -0.3495 H   0  0  0  0  0  0  0  0  0  0  0  0
    3.1338    0.7303    0.2159 H   0  0  0  0  0  0  0  0  0  0  0  0
    2.1288   -0.1512   -0.9469 H   0  0  0  0  0  0  0  0  0  0  0  0
  2  1  1  0  0  0  0
  3  2  1  0  0  0  0
  4  1  1  0  0  0  0
  3  5  1  0  0  0  0
  3  6  1  0  0  0  0
  3  7  1  0  0  0  0
  4  8  1  0  0  0  0
  4  9  1  0  0  0  0
  4 10  1  0  0  0  0
M  END
>  <energy>
-0.53949727463881736

$$$$
