C1=CN(C(=CC1)[C@@H]1C=CN(C=C1)C)C
                    3D

 30 31  0  0  0  0  0  0  0  0999 V2000
    3.1392   -0.0596   -2.1594 C   0  0  0  0  0  0  0  0  0  0  0  0
    3.2786   -0.0983   -0.8289 C   0  0  0  0  0  0  0  0  0  0  0  0
    2.2199   -0.2381    0.0650 N   0  0  0  0  0  0  0  0  0  0  0  0
    0.8988   -0.3922   -0.4425 C   0  0  0  0  0  0  0  0  0  0  0  0
    0.6851   -0.3514   -1.7810 C   0  0  0  0  0  0  0  0  0  0  0  0
    1.7853   -0.1737   -2.7887 C   0  0  0  0  0  0  0  0  0  0  0  0
   -0.2812   -0.6003    0.5325 C   0  0  0  0  0  0  0  0  0  0  0  0
   -1.2925   -1.6237    0.0352 C   0  0  0  0  0  0  0  0  0  0  0  0
   -2.5976   -1.3240   -0.0616 C   0  0  0  0  0  0  0  0  0  0  0  0
   -3.1254   -0.0864    0.2867 N   0  0  0  0  0  0  0  0  0  0  0  0
   -2.2595    0.9060    0.7292 C   0  0  0  0  0  0  0  0  0  0  0  0
   -0.9374    0.7276    0.8689 C   0  0  0  0  0  0  0  0  0  0  0  0
   -4.5470    0.2051    0.1005 C   0  0  0  0  0  0  0  0  0  0  0  0
    2.5110   -0.2742    1.5020 C   0  0  0  0  0  0  0  0  0  0  0  0
    4.0041    0.0549   -2.8019 H   0  0  0  0  0  0  0  0  0  0  0  0
    4.2624   -0.0187   -0.3749 H   0  0  0  0  0  0  0  0  0  0  0  0
   -0.3197   -0.4417   -2.1829 H   0  0  0  0  0  0  0  0  0  0  0  0
    1.7808   -1.0307   -3.4717 H   0  0  0  0  0  0  0  0  0  0  0  0
    1.5887    0.7257   -3.3827 H   0  0  0  0  0  0  0  0  0  0  0  0
    0.0962   -1.0242    1.4705 H   0  0  0  0  0  0  0  0  0  0  0  0
   -0.9313   -2.6111   -0.2315 H   0  0  0  0  0  0  0  0  0  0  0  0
   -3.3185   -2.0531   -0.4191 H   0  0  0  0  0  0  0  0  0  0  0  0
   -2.7292    1.8570    0.9635 H   0  0  0  0  0  0  0  0  0  0  0  0
   -0.3104    1.5373    1.2246 H   0  0  0  0  0  0  0  0  0  0  0  0
   -4.9321    0.8073    0.9315 H   0  0  0  0  0  0  0  0  0  0  0  0
   -4.6983    0.7609   -0.8315 H   0  0  0  0  0  0  0  0  0  0  0  0
   -5.1475   -0.7105    0.0568 H   0  0  0  0  0  0  0  0  0  0  0  0
    3.5258    0.0783    1.7227 H   0  0  0  0  0  0  0  0  0  0  0  0
    2.4245   -1.2995    1.8776 H   0  0  0  0  0  0  0  0  0  0  0  0
    1.8323    0.3758    2.0635 H   0  0  0  0  0  0  0  0  0  0  0  0
  2  1  2  0  0  0  0
  3  2  1  0  0  0  0
  4  3  1  0  0  0  0
  5  4  2  0  0  0  0
  6  5  1  0  0  0  0
  6  1  1  0  0  0  0
  7  4  1  0  0  0  0
  8  7  1  0  0  0  0
  9  8  2  0  0  0  0
 10  9  1  0  0  0  0
 11 10  1  0  0  0  0
 12 11  2  0  0  0  0
 12  7  1  0  0  0  0
 13 10  1  0  0  0  0
 14  3  1  0  0  0  0
  1 15  1  0  0  0  0
  2 16  1  0  0  0  0
  5 17  1  0  0  0  0
  6 18  1  0  0  0  0
  6 19  1  0  0  0  0
  7 20  1  0  0  0  0
  8 21  1  0  0  0  0
  9 22  1  0  0  0  0
 11 23  1  0  0  0  0
 12 24  1  0  0  0  0
 13 25  1  0  0  0  0
 13 26  1  0  0  0  0
 13 27  1  0  0  0  0
 14 28  1  0  0  0  0
 14 29  1  0  0  0  0
 14 30  1  0  0  0  0
M  END
>  <energy>
17.140940456149011

$$$$
