c1ccc2c(c1)Nc1c(S2)ccc2c1cccc2
                    3D

 29 32  0  0  0  0  0  0  0  0999 V2000
   -3.9864    1.6900    1.4784 C   0  0  0  0  0  0  0  0  0  0  0  0
   -4.7406    0.6073    1.0409 C   0  0  0  0  0  0  0  0  0  0  0  0
   -4.1117   -0.4584    0.3972 C   0  0  0  0  0  0  0  0  0  0  0  0
   -2.7230   -0.4547    0.1918 C   0  0  0  0  0  0  0  0  0  0  0  0
   -1.9533    0.6228    0.6525 C   0  0  0  0  0  0  0  0  0  0  0  0
   -2.6049    1.7007    1.2763 C   0  0  0  0  0  0  0  0  0  0  0  0
   -0.5673    0.7167    0.4211 N   0  0  0  0  0  0  0  0  0  0  0  0
    0.2775   -0.2711   -0.1479 C   0  0  0  0  0  0  0  0  0  0  0  0
   -0.2667   -1.4625   -0.6717 C   0  0  0  0  0  0  0  0  0  0  0  0
   -2.0085   -1.8569   -0.6384 S   0  0  0  0  0  0  0  0  0  0  0  0
    0.5728   -2.4195   -1.2509 C   0  0  0  0  0  0  0  0  0  0  0  0
    1.9444   -2.2001   -1.3398 C   0  0  0  0  0  0  0  0  0  0  0  0
    2.5090   -1.0102   -0.8720 C   0  0  0  0  0  0  0  0  0  0  0  0
    1.6837   -0.0174   -0.2827 C   0  0  0  0  0  0  0  0  0  0  0  0
    2.3218    1.1799    0.1317 C   0  0  0  0  0  0  0  0  0  0  0  0
    3.6995    1.3745   -0.0071 C   0  0  0  0  0  0  0  0  0  0  0  0
    4.4857    0.3803   -0.5695 C   0  0  0  0  0  0  0  0  0  0  0  0
    3.8927   -0.8031   -1.0015 C   0  0  0  0  0  0  0  0  0  0  0  0
   -4.4717    2.5299    1.9686 H   0  0  0  0  0  0  0  0  0  0  0  0
   -5.8169    0.5932    1.1911 H   0  0  0  0  0  0  0  0  0  0  0  0
   -4.7148   -1.2949    0.0509 H   0  0  0  0  0  0  0  0  0  0  0  0
   -2.0359    2.5660    1.6067 H   0  0  0  0  0  0  0  0  0  0  0  0
   -0.0985    1.3383    1.0653 H   0  0  0  0  0  0  0  0  0  0  0  0
    0.1630   -3.3476   -1.6432 H   0  0  0  0  0  0  0  0  0  0  0  0
    2.5663   -2.9673   -1.7966 H   0  0  0  0  0  0  0  0  0  0  0  0
    1.7509    1.9986    0.5595 H   0  0  0  0  0  0  0  0  0  0  0  0
    4.1521    2.3066    0.3212 H   0  0  0  0  0  0  0  0  0  0  0  0
    5.5566    0.5261   -0.6814 H   0  0  0  0  0  0  0  0  0  0  0  0
    4.5239   -1.5673   -1.4507 H   0  0  0  0  0  0  0  0  0  0  0  0
  2  1  2  0  0  0  0
  3  2  1  0  0  0  0
  4  3  2  0  0  0  0
  5  4  1  0  0  0  0
  6  5  2  0  0  0  0
  6  1  1  0  0  0  0
  7  5  1  0  0  0  0
  8  7  1  0  0  0  0
  9  8  2  0  0  0  0
 10  9  1  0  0  0  0
 10  4  1  0  0  0  0
 11  9  1  0  0  0  0
 12 11  2  0  0  0  0
 13 12  1  0  0  0  0
 14 13  2  0  0  0  0
 14  8  1  0  0  0  0
 15 14  1  0  0  0  0
 16 15  2  0  0  0  0
 17 16  1  0  0  0  0
 18 17  2  0  0  0  0
 18 13  1  0  0  0  0
  1 19  1  0  0  0  0
  2 20  1  0  0  0  0
  3 21  1  0  0  0  0
  6 22  1  0  0  0  0
  7 23  1  0  0  0  0
 11 24  1  0  0  0  0
 12 25  1  0  0  0  0
 15 26  1  0  0  0  0
 16 27  1  0  0  0  0
 17 28  1  0  0  0  0
 18 29  1  0  0  0  0
M  END
>  <energy>
75.86133403536796

$$$$
