N1(C=C[C@H](C=C1)[C@@H]1C=CN(C=C1)/C(=C\Cl)/Cl)/C(=C\Cl)/Cl
                    3D

 32 33  0  0  0  0  0  0  0  0999 V2000
    3.4705    0.1954    0.7018 N   0  0  0  0  0  0  0  0  0  0  0  0
    2.5146    0.3047    1.7171 C   0  0  0  0  0  0  0  0  0  0  0  0
    1.3001   -0.2660    1.6843 C   0  0  0  0  0  0  0  0  0  0  0  0
    0.8384   -1.0803    0.4870 C   0  0  0  0  0  0  0  0  0  0  0  0
    1.9495   -1.2286   -0.5429 C   0  0  0  0  0  0  0  0  0  0  0  0
    3.1321   -0.6111   -0.3917 C   0  0  0  0  0  0  0  0  0  0  0  0
   -0.4634   -0.5130   -0.1685 C   0  0  0  0  0  0  0  0  0  0  0  0
   -0.3196    0.9343   -0.6149 C   0  0  0  0  0  0  0  0  0  0  0  0
   -1.1384    1.8948   -0.1586 C   0  0  0  0  0  0  0  0  0  0  0  0
   -2.1960    1.6801    0.7313 N   0  0  0  0  0  0  0  0  0  0  0  0
   -2.4176    0.3546    1.1273 C   0  0  0  0  0  0  0  0  0  0  0  0
   -1.6663   -0.6909    0.7442 C   0  0  0  0  0  0  0  0  0  0  0  0
   -2.9889    2.7385    1.1950 C   0  0  0  0  0  0  0  0  0  0  0  0
   -3.5581    3.7582    0.5362 C   0  0  0  0  0  0  0  0  0  0  0  0
   -3.5594    3.9944   -1.1606 Cl  0  0  0  0  0  0  0  0  0  0  0  0
   -3.1939    2.7345    2.9353 Cl  0  0  0  0  0  0  0  0  0  0  0  0
    4.7004    0.8626    0.7853 C   0  0  0  0  0  0  0  0  0  0  0  0
    4.9784    2.1298    1.1237 C   0  0  0  0  0  0  0  0  0  0  0  0
    3.8334    3.3605    1.4595 Cl  0  0  0  0  0  0  0  0  0  0  0  0
    6.0740   -0.1667    0.4394 Cl  0  0  0  0  0  0  0  0  0  0  0  0
    2.8244    0.8783    2.5863 H   0  0  0  0  0  0  0  0  0  0  0  0
    0.6189   -0.1428    2.5201 H   0  0  0  0  0  0  0  0  0  0  0  0
    0.6255   -2.0944    0.8546 H   0  0  0  0  0  0  0  0  0  0  0  0
    1.7623   -1.8396   -1.4199 H   0  0  0  0  0  0  0  0  0  0  0  0
    3.8966   -0.7038   -1.1578 H   0  0  0  0  0  0  0  0  0  0  0  0
   -0.6770   -1.1025   -1.0709 H   0  0  0  0  0  0  0  0  0  0  0  0
    0.4861    1.1871   -1.2973 H   0  0  0  0  0  0  0  0  0  0  0  0
   -0.9811    2.9275   -0.4555 H   0  0  0  0  0  0  0  0  0  0  0  0
   -3.2829    0.2029    1.7673 H   0  0  0  0  0  0  0  0  0  0  0  0
   -1.9164   -1.6928    1.0774 H   0  0  0  0  0  0  0  0  0  0  0  0
   -4.1310    4.5324    1.0312 H   0  0  0  0  0  0  0  0  0  0  0  0
    5.9873    2.5204    1.1697 H   0  0  0  0  0  0  0  0  0  0  0  0
  2  1  1  0  0  0  0
  3  2  2  0  0  0  0
  4  3  1  0  0  0  0
  5  4  1  0  0  0  0
  6  5  2  0  0  0  0
  6  1  1  0  0  0  0
  7  4  1  0  0  0  0
  8  7  1  0  0  0  0
  9  8  2  0  0  0  0
 10  9  1  0  0  0  0
 11 10  1  0  0  0  0
 12 11  2  0  0  0  0
 12  7  1  0  0  0  0
 13 10  1  0  0  0  0
 14 13  2  0  0  0  0
 15 14  1  0  0  0  0
 16 13  1  0  0  0  0
 17  1  1  0  0  0  0
 18 17  2  0  0  0  0
 19 18  1  0  0  0  0
 20 17  1  0  0  0  0
  2 21  1  0  0  0  0
  3 22  1  0  0  0  0
  4 23  1  0  0  0  0
  5 24  1  0  0  0  0
  6 25  1  0  0  0  0
  7 26  1  0  0  0  0
  8 27  1  0  0  0  0
  9 28  1  0  0  0  0
 11 29  1  0  0  0  0
 12 30  1  0  0  0  0
 14 31  1  0  0  0  0
 18 32  1  0  0  0  0
M  END
>  <energy>
59.492183289307043

$$$$
N1(C=C[C@H](C=C1)[C@@H]1C=CN(C=C1)/C(=C\Cl)/Cl)/C(=C\Cl)/Cl
                    3D

 32 33  0  0  0  0  0  0  0  0999 V2000
    3.3892    0.2354    0.7844 N   0  0  0  0  0  0  0  0  0  0  0  0
    2.3759    0.5047    1.7104 C   0  0  0  0  0  0  0  0  0  0  0  0
    1.1627   -0.0684    1.6959 C   0  0  0  0  0  0  0  0  0  0  0  0
    0.7669   -1.0608    0.6135 C   0  0  0  0  0  0  0  0  0  0  0  0
    1.9392   -1.3751   -0.3045 C   0  0  0  0  0  0  0  0  0  0  0  0
    3.1150   -0.7377   -0.1833 C   0  0  0  0  0  0  0  0  0  0  0  0
   -0.4745   -0.5899   -0.2131 C   0  0  0  0  0  0  0  0  0  0  0  0
   -0.2619    0.7678   -0.8676 C   0  0  0  0  0  0  0  0  0  0  0  0
   -1.0685    1.8077   -0.6017 C   0  0  0  0  0  0  0  0  0  0  0  0
   -2.1726    1.7467    0.2567 N   0  0  0  0  0  0  0  0  0  0  0  0
   -2.4704    0.5020    0.8188 C   0  0  0  0  0  0  0  0  0  0  0  0
   -1.7382   -0.6085    0.6322 C   0  0  0  0  0  0  0  0  0  0  0  0
   -2.9216    2.8844    0.5735 C   0  0  0  0  0  0  0  0  0  0  0  0
   -3.2472    3.3875    1.7732 C   0  0  0  0  0  0  0  0  0  0  0  0
   -2.7137    2.7753    3.2845 Cl  0  0  0  0  0  0  0  0  0  0  0  0
   -3.5407    3.7154   -0.8330 Cl  0  0  0  0  0  0  0  0  0  0  0  0
    4.6086    0.9221    0.8245 C   0  0  0  0  0  0  0  0  0  0  0  0
    4.8600    2.2328    0.9395 C   0  0  0  0  0  0  0  0  0  0  0  0
    3.6846    3.4820    0.9577 Cl  0  0  0  0  0  0  0  0  0  0  0  0
    5.9971   -0.1376    0.7685 Cl  0  0  0  0  0  0  0  0  0  0  0  0
    2.6382    1.2156    2.4891 H   0  0  0  0  0  0  0  0  0  0  0  0
    0.4320    0.1884    2.4563 H   0  0  0  0  0  0  0  0  0  0  0  0
    0.5113   -2.0022    1.1202 H   0  0  0  0  0  0  0  0  0  0  0  0
    1.8004   -2.1165   -1.0838 H   0  0  0  0  0  0  0  0  0  0  0  0
    3.9239   -0.9467   -0.8788 H   0  0  0  0  0  0  0  0  0  0  0  0
   -0.6409   -1.3107   -1.0262 H   0  0  0  0  0  0  0  0  0  0  0  0
    0.5845    0.8921   -1.5361 H   0  0  0  0  0  0  0  0  0  0  0  0
   -0.8707    2.7824   -1.0387 H   0  0  0  0  0  0  0  0  0  0  0  0
   -3.3752    0.4731    1.4210 H   0  0  0  0  0  0  0  0  0  0  0  0
   -2.0444   -1.5446    1.0840 H   0  0  0  0  0  0  0  0  0  0  0  0
   -3.8480    4.2778    1.9008 H   0  0  0  0  0  0  0  0  0  0  0  0
    5.8587    2.6466    0.9832 H   0  0  0  0  0  0  0  0  0  0  0  0
  2  1  1  0  0  0  0
  3  2  2  0  0  0  0
  4  3  1  0  0  0  0
  5  4  1  0  0  0  0
  6  5  2  0  0  0  0
  6  1  1  0  0  0  0
  7  4  1  0  0  0  0
  8  7  1  0  0  0  0
  9  8  2  0  0  0  0
 10  9  1  0  0  0  0
 11 10  1  0  0  0  0
 12 11  2  0  0  0  0
 12  7  1  0  0  0  0
 13 10  1  0  0  0  0
 14 13  2  0  0  0  0
 15 14  1  0  0  0  0
 16 13  1  0  0  0  0
 17  1  1  0  0  0  0
 18 17  2  0  0  0  0
 19 18  1  0  0  0  0
 20 17  1  0  0  0  0
  2 21  1  0  0  0  0
  3 22  1  0  0  0  0
  4 23  1  0  0  0  0
  5 24  1  0  0  0  0
  6 25  1  0  0  0  0
  7 26  1  0  0  0  0
  8 27  1  0  0  0  0
  9 28  1  0  0  0  0
 11 29  1  0  0  0  0
 12 30  1  0  0  0  0
 14 31  1  0  0  0  0
 18 32  1  0  0  0  0
M  END
>  <energy>
59.526872897065331

$$$$
N1(C=C[C@H](C=C1)[C@@H]1C=CN(C=C1)/C(=C\Cl)/Cl)/C(=C\Cl)/Cl
                    3D

 32 33  0  0  0  0  0  0  0  0999 V2000
   -2.1678    1.6856    0.3928 N   0  0  0  0  0  0  0  0  0  0  0  0
   -2.3663    0.3847   -0.0882 C   0  0  0  0  0  0  0  0  0  0  0  0
   -1.6447   -0.6837    0.2898 C   0  0  0  0  0  0  0  0  0  0  0  0
   -0.5029   -0.5592    1.2874 C   0  0  0  0  0  0  0  0  0  0  0  0
   -0.3799    0.8612    1.8127 C   0  0  0  0  0  0  0  0  0  0  0  0
   -1.1669    1.8479    1.3562 C   0  0  0  0  0  0  0  0  0  0  0  0
    0.8335   -1.0970    0.6758 C   0  0  0  0  0  0  0  0  0  0  0  0
    1.8920   -1.3066    1.7496 C   0  0  0  0  0  0  0  0  0  0  0  0
    3.0815   -0.6845    1.6927 C   0  0  0  0  0  0  0  0  0  0  0  0
    3.4684    0.1850    0.6658 N   0  0  0  0  0  0  0  0  0  0  0  0
    2.5642    0.3575   -0.3859 C   0  0  0  0  0  0  0  0  0  0  0  0
    1.3526   -0.2153   -0.4487 C   0  0  0  0  0  0  0  0  0  0  0  0
    4.6855    0.8738    0.6942 C   0  0  0  0  0  0  0  0  0  0  0  0
    4.9353    2.1810    0.5353 C   0  0  0  0  0  0  0  0  0  0  0  0
    3.7497    3.4094    0.3475 Cl  0  0  0  0  0  0  0  0  0  0  0  0
    6.0652   -0.1769    0.9146 Cl  0  0  0  0  0  0  0  0  0  0  0  0
   -2.9383    2.7708   -0.0495 C   0  0  0  0  0  0  0  0  0  0  0  0
   -3.5090    3.7723    0.6370 C   0  0  0  0  0  0  0  0  0  0  0  0
   -3.5486    3.9444    2.3421 Cl  0  0  0  0  0  0  0  0  0  0  0  0
   -3.1136    2.8354   -1.7912 Cl  0  0  0  0  0  0  0  0  0  0  0  0
   -3.1837    0.2701   -0.7961 H   0  0  0  0  0  0  0  0  0  0  0  0
   -1.8687   -1.6639   -0.1187 H   0  0  0  0  0  0  0  0  0  0  0  0
   -0.7716   -1.1916    2.1448 H   0  0  0  0  0  0  0  0  0  0  0  0
    0.3883    1.0797    2.5467 H   0  0  0  0  0  0  0  0  0  0  0  0
   -1.0204    2.8630    1.7139 H   0  0  0  0  0  0  0  0  0  0  0  0
    0.6429   -2.0889    0.2422 H   0  0  0  0  0  0  0  0  0  0  0  0
    1.6600   -1.9655    2.5808 H   0  0  0  0  0  0  0  0  0  0  0  0
    3.8130   -0.8181    2.4843 H   0  0  0  0  0  0  0  0  0  0  0  0
    2.9151    0.9880   -1.1974 H   0  0  0  0  0  0  0  0  0  0  0  0
    0.7102   -0.0352   -1.3051 H   0  0  0  0  0  0  0  0  0  0  0  0
    5.9309    2.6045    0.5585 H   0  0  0  0  0  0  0  0  0  0  0  0
   -4.0667    4.5711    0.1653 H   0  0  0  0  0  0  0  0  0  0  0  0
  2  1  1  0  0  0  0
  3  2  2  0  0  0  0
  4  3  1  0  0  0  0
  5  4  1  0  0  0  0
  6  5  2  0  0  0  0
  6  1  1  0  0  0  0
  7  4  1  0  0  0  0
  8  7  1  0  0  0  0
  9  8  2  0  0  0  0
 10  9  1  0  0  0  0
 11 10  1  0  0  0  0
 12 11  2  0  0  0  0
 12  7  1  0  0  0  0
 13 10  1  0  0  0  0
 14 13  2  0  0  0  0
 15 14  1  0  0  0  0
 16 13  1  0  0  0  0
 17  1  1  0  0  0  0
 18 17  2  0  0  0  0
 19 18  1  0  0  0  0
 20 17  1  0  0  0  0
  2 21  1  0  0  0  0
  3 22  1  0  0  0  0
  4 23  1  0  0  0  0
  5 24  1  0  0  0  0
  6 25  1  0  0  0  0
  7 26  1  0  0  0  0
  8 27  1  0  0  0  0
  9 28  1  0  0  0  0
 11 29  1  0  0  0  0
 12 30  1  0  0  0  0
 14 31  1  0  0  0  0
 18 32  1  0  0  0  0
M  END
>  <energy>
59.600751252812188

$$$$
N1(C=C[C@H](C=C1)[C@@H]1C=CN(C=C1)/C(=C\Cl)/Cl)/C(=C\Cl)/Cl
                    3D

 32 33  0  0  0  0  0  0  0  0999 V2000
   -2.0896    1.8892    0.6486 N   0  0  0  0  0  0  0  0  0  0  0  0
   -0.9254    2.2985   -0.0111 C   0  0  0  0  0  0  0  0  0  0  0  0
   -0.0886    1.4686   -0.6538 C   0  0  0  0  0  0  0  0  0  0  0  0
   -0.3267   -0.0344   -0.6818 C   0  0  0  0  0  0  0  0  0  0  0  0
   -1.6558   -0.3964   -0.0344 C   0  0  0  0  0  0  0  0  0  0  0  0
   -2.4146    0.5314    0.5701 C   0  0  0  0  0  0  0  0  0  0  0  0
    0.8503   -0.8404   -0.0391 C   0  0  0  0  0  0  0  0  0  0  0  0
    1.1138   -0.4514    1.4090 C   0  0  0  0  0  0  0  0  0  0  0  0
    2.3091    0.0119    1.8062 C   0  0  0  0  0  0  0  0  0  0  0  0
    3.4171    0.1566    0.9646 N   0  0  0  0  0  0  0  0  0  0  0  0
    3.2577   -0.2531   -0.3635 C   0  0  0  0  0  0  0  0  0  0  0  0
    2.1137   -0.7303   -0.8785 C   0  0  0  0  0  0  0  0  0  0  0  0
    4.6262    0.6947    1.4187 C   0  0  0  0  0  0  0  0  0  0  0  0
    5.3686    1.6873    0.9085 C   0  0  0  0  0  0  0  0  0  0  0  0
    4.9469    2.6574   -0.4420 Cl  0  0  0  0  0  0  0  0  0  0  0  0
    5.2552   -0.1172    2.8339 Cl  0  0  0  0  0  0  0  0  0  0  0  0
   -2.9088    2.7988    1.3238 C   0  0  0  0  0  0  0  0  0  0  0  0
   -4.2280    3.0147    1.2257 C   0  0  0  0  0  0  0  0  0  0  0  0
   -5.2882    2.2517    0.1162 Cl  0  0  0  0  0  0  0  0  0  0  0  0
   -2.0431    3.7483    2.5091 Cl  0  0  0  0  0  0  0  0  0  0  0  0
   -0.7337    3.3686    0.0045 H   0  0  0  0  0  0  0  0  0  0  0  0
    0.7911    1.8605   -1.1542 H   0  0  0  0  0  0  0  0  0  0  0  0
   -0.4109   -0.3253   -1.7392 H   0  0  0  0  0  0  0  0  0  0  0  0
   -1.9758   -1.4329   -0.0566 H   0  0  0  0  0  0  0  0  0  0  0  0
   -3.3416    0.2501    1.0608 H   0  0  0  0  0  0  0  0  0  0  0  0
    0.5772   -1.9051   -0.0357 H   0  0  0  0  0  0  0  0  0  0  0  0
    0.2991   -0.5302    2.1212 H   0  0  0  0  0  0  0  0  0  0  0  0
    2.4638    0.3251    2.8359 H   0  0  0  0  0  0  0  0  0  0  0  0
    4.1537   -0.1870   -0.9737 H   0  0  0  0  0  0  0  0  0  0  0  0
    2.0747   -1.0496   -1.9141 H   0  0  0  0  0  0  0  0  0  0  0  0
    6.3092    2.0080    1.3378 H   0  0  0  0  0  0  0  0  0  0  0  0
   -4.7542    3.7476    1.8237 H   0  0  0  0  0  0  0  0  0  0  0  0
  2  1  1  0  0  0  0
  3  2  2  0  0  0  0
  4  3  1  0  0  0  0
  5  4  1  0  0  0  0
  6  5  2  0  0  0  0
  6  1  1  0  0  0  0
  7  4  1  0  0  0  0
  8  7  1  0  0  0  0
  9  8  2  0  0  0  0
 10  9  1  0  0  0  0
 11 10  1  0  0  0  0
 12 11  2  0  0  0  0
 12  7  1  0  0  0  0
 13 10  1  0  0  0  0
 14 13  2  0  0  0  0
 15 14  1  0  0  0  0
 16 13  1  0  0  0  0
 17  1  1  0  0  0  0
 18 17  2  0  0  0  0
 19 18  1  0  0  0  0
 20 17  1  0  0  0  0
  2 21  1  0  0  0  0
  3 22  1  0  0  0  0
  4 23  1  0  0  0  0
  5 24  1  0  0  0  0
  6 25  1  0  0  0  0
  7 26  1  0  0  0  0
  8 27  1  0  0  0  0
  9 28  1  0  0  0  0
 11 29  1  0  0  0  0
 12 30  1  0  0  0  0
 14 31  1  0  0  0  0
 18 32  1  0  0  0  0
M  END
>  <energy>
59.617547210649569

$$$$
N1(C=C[C@H](C=C1)[C@@H]1C=CN(C=C1)/C(=C\Cl)/Cl)/C(=C\Cl)/Cl
                    3D

 32 33  0  0  0  0  0  0  0  0999 V2000
    3.3473    0.3141    0.4692 N   0  0  0  0  0  0  0  0  0  0  0  0
    3.1048   -0.6581    1.4471 C   0  0  0  0  0  0  0  0  0  0  0  0
    1.9689   -1.3699    1.5403 C   0  0  0  0  0  0  0  0  0  0  0  0
    0.8126   -1.1533    0.5718 C   0  0  0  0  0  0  0  0  0  0  0  0
    1.1825   -0.1523   -0.5122 C   0  0  0  0  0  0  0  0  0  0  0  0
    2.3542    0.5016   -0.4956 C   0  0  0  0  0  0  0  0  0  0  0  0
   -0.4931   -0.7577    1.3376 C   0  0  0  0  0  0  0  0  0  0  0  0
   -1.7080   -0.8077    0.4221 C   0  0  0  0  0  0  0  0  0  0  0  0
   -2.4776    0.2754    0.2201 C   0  0  0  0  0  0  0  0  0  0  0  0
   -2.2607    1.5226    0.8195 N   0  0  0  0  0  0  0  0  0  0  0  0
   -1.2071    1.6024    1.7356 C   0  0  0  0  0  0  0  0  0  0  0  0
   -0.3765    0.5908    2.0294 C   0  0  0  0  0  0  0  0  0  0  0  0
   -3.0448    2.6425    0.5215 C   0  0  0  0  0  0  0  0  0  0  0  0
   -2.6741    3.8899    0.1969 C   0  0  0  0  0  0  0  0  0  0  0  0
   -1.0627    4.4260   -0.0525 Cl  0  0  0  0  0  0  0  0  0  0  0  0
   -4.7595    2.3425    0.6695 Cl  0  0  0  0  0  0  0  0  0  0  0  0
    4.5176    1.0815    0.4592 C   0  0  0  0  0  0  0  0  0  0  0  0
    4.6782    2.4102    0.3778 C   0  0  0  0  0  0  0  0  0  0  0  0
    3.4171    3.5724    0.3687 Cl  0  0  0  0  0  0  0  0  0  0  0  0
    5.9711    0.1131    0.5040 Cl  0  0  0  0  0  0  0  0  0  0  0  0
    3.9014   -0.7965    2.1743 H   0  0  0  0  0  0  0  0  0  0  0  0
    1.8474   -2.1011    2.3310 H   0  0  0  0  0  0  0  0  0  0  0  0
    0.6437   -2.1176    0.0725 H   0  0  0  0  0  0  0  0  0  0  0  0
    0.4667    0.0474   -1.3007 H   0  0  0  0  0  0  0  0  0  0  0  0
    2.5931    1.2186   -1.2761 H   0  0  0  0  0  0  0  0  0  0  0  0
   -0.6714   -1.5054    2.1250 H   0  0  0  0  0  0  0  0  0  0  0  0
   -1.9360   -1.7424   -0.0821 H   0  0  0  0  0  0  0  0  0  0  0  0
   -3.3213    0.2279   -0.4628 H   0  0  0  0  0  0  0  0  0  0  0  0
   -1.1019    2.5579    2.2402 H   0  0  0  0  0  0  0  0  0  0  0  0
    0.4096    0.7309    2.7635 H   0  0  0  0  0  0  0  0  0  0  0  0
   -3.3806    4.6895    0.0107 H   0  0  0  0  0  0  0  0  0  0  0  0
    5.6474    2.8918    0.3485 H   0  0  0  0  0  0  0  0  0  0  0  0
  2  1  1  0  0  0  0
  3  2  2  0  0  0  0
  4  3  1  0  0  0  0
  5  4  1  0  0  0  0
  6  5  2  0  0  0  0
  6  1  1  0  0  0  0
  7  4  1  0  0  0  0
  8  7  1  0  0  0  0
  9  8  2  0  0  0  0
 10  9  1  0  0  0  0
 11 10  1  0  0  0  0
 12 11  2  0  0  0  0
 12  7  1  0  0  0  0
 13 10  1  0  0  0  0
 14 13  2  0  0  0  0
 15 14  1  0  0  0  0
 16 13  1  0  0  0  0
 17  1  1  0  0  0  0
 18 17  2  0  0  0  0
 19 18  1  0  0  0  0
 20 17  1  0  0  0  0
  2 21  1  0  0  0  0
  3 22  1  0  0  0  0
  4 23  1  0  0  0  0
  5 24  1  0  0  0  0
  6 25  1  0  0  0  0
  7 26  1  0  0  0  0
  8 27  1  0  0  0  0
  9 28  1  0  0  0  0
 11 29  1  0  0  0  0
 12 30  1  0  0  0  0
 14 31  1  0  0  0  0
 18 32  1  0  0  0  0
M  END
>  <energy>
59.623498323687826

$$$$
N1(C=C[C@H](C=C1)[C@@H]1C=CN(C=C1)/C(=C\Cl)/Cl)/C(=C\Cl)/Cl
                    3D

 32 33  0  0  0  0  0  0  0  0999 V2000
   -2.1537    1.9174    0.3739 N   0  0  0  0  0  0  0  0  0  0  0  0
   -1.1104    1.9445   -0.5580 C   0  0  0  0  0  0  0  0  0  0  0  0
   -0.3201    0.8976   -0.8422 C   0  0  0  0  0  0  0  0  0  0  0  0
   -0.4775   -0.4367   -0.1279 C   0  0  0  0  0  0  0  0  0  0  0  0
   -1.6741   -0.4207    0.8122 C   0  0  0  0  0  0  0  0  0  0  0  0
   -2.3990    0.6938    1.0066 C   0  0  0  0  0  0  0  0  0  0  0  0
    0.8236   -0.8801    0.6219 C   0  0  0  0  0  0  0  0  0  0  0  0
    1.2590    0.1122    1.6893 C   0  0  0  0  0  0  0  0  0  0  0  0
    2.4831    0.6630    1.6803 C   0  0  0  0  0  0  0  0  0  0  0  0
    3.4717    0.3832    0.7318 N   0  0  0  0  0  0  0  0  0  0  0  0
    3.1476   -0.5636   -0.2474 C   0  0  0  0  0  0  0  0  0  0  0  0
    1.9576   -1.1798   -0.3474 C   0  0  0  0  0  0  0  0  0  0  0  0
    4.7227    1.0143    0.7729 C   0  0  0  0  0  0  0  0  0  0  0  0
    5.5668    1.2117    1.7965 C   0  0  0  0  0  0  0  0  0  0  0  0
    5.3766    0.6167    3.3933 Cl  0  0  0  0  0  0  0  0  0  0  0  0
    5.1965    1.7006   -0.7673 Cl  0  0  0  0  0  0  0  0  0  0  0  0
   -2.9301    3.0504    0.6440 C   0  0  0  0  0  0  0  0  0  0  0  0
   -4.2616    3.2020    0.6748 C   0  0  0  0  0  0  0  0  0  0  0  0
   -5.4168    2.0027    0.2702 Cl  0  0  0  0  0  0  0  0  0  0  0  0
   -1.9718    4.4568    1.0525 Cl  0  0  0  0  0  0  0  0  0  0  0  0
   -0.9813    2.8883   -1.0797 H   0  0  0  0  0  0  0  0  0  0  0  0
    0.4603    0.9951   -1.5905 H   0  0  0  0  0  0  0  0  0  0  0  0
   -0.7011   -1.1878   -0.8996 H   0  0  0  0  0  0  0  0  0  0  0  0
   -1.9268   -1.3328    1.3431 H   0  0  0  0  0  0  0  0  0  0  0  0
   -3.2269    0.6952    1.7106 H   0  0  0  0  0  0  0  0  0  0  0  0
    0.6100   -1.8265    1.1401 H   0  0  0  0  0  0  0  0  0  0  0  0
    0.5479    0.3881    2.4607 H   0  0  0  0  0  0  0  0  0  0  0  0
    2.7528    1.4000    2.4306 H   0  0  0  0  0  0  0  0  0  0  0  0
    3.9511   -0.8064   -0.9373 H   0  0  0  0  0  0  0  0  0  0  0  0
    1.7929   -1.9196   -1.1242 H   0  0  0  0  0  0  0  0  0  0  0  0
    6.5025    1.7468    1.6951 H   0  0  0  0  0  0  0  0  0  0  0  0
   -4.7450    4.1408    0.9130 H   0  0  0  0  0  0  0  0  0  0  0  0
  2  1  1  0  0  0  0
  3  2  2  0  0  0  0
  4  3  1  0  0  0  0
  5  4  1  0  0  0  0
  6  5  2  0  0  0  0
  6  1  1  0  0  0  0
  7  4  1  0  0  0  0
  8  7  1  0  0  0  0
  9  8  2  0  0  0  0
 10  9  1  0  0  0  0
 11 10  1  0  0  0  0
 12 11  2  0  0  0  0
 12  7  1  0  0  0  0
 13 10  1  0  0  0  0
 14 13  2  0  0  0  0
 15 14  1  0  0  0  0
 16 13  1  0  0  0  0
 17  1  1  0  0  0  0
 18 17  2  0  0  0  0
 19 18  1  0  0  0  0
 20 17  1  0  0  0  0
  2 21  1  0  0  0  0
  3 22  1  0  0  0  0
  4 23  1  0  0  0  0
  5 24  1  0  0  0  0
  6 25  1  0  0  0  0
  7 26  1  0  0  0  0
  8 27  1  0  0  0  0
  9 28  1  0  0  0  0
 11 29  1  0  0  0  0
 12 30  1  0  0  0  0
 14 31  1  0  0  0  0
 18 32  1  0  0  0  0
M  END
>  <energy>
59.657442984610022

$$$$
N1(C=C[C@H](C=C1)[C@@H]1C=CN(C=C1)/C(=C\Cl)/Cl)/C(=C\Cl)/Cl
                    3D

 32 33  0  0  0  0  0  0  0  0999 V2000
    3.4763    0.1798    0.6142 N   0  0  0  0  0  0  0  0  0  0  0  0
    3.0066   -1.1386    0.5575 C   0  0  0  0  0  0  0  0  0  0  0  0
    1.8902   -1.5139   -0.0875 C   0  0  0  0  0  0  0  0  0  0  0  0
    1.0107   -0.4990   -0.8047 C   0  0  0  0  0  0  0  0  0  0  0  0
    1.6571    0.8781   -0.8259 C   0  0  0  0  0  0  0  0  0  0  0  0
    2.7775    1.1323   -0.1343 C   0  0  0  0  0  0  0  0  0  0  0  0
   -0.4283   -0.4712   -0.1890 C   0  0  0  0  0  0  0  0  0  0  0  0
   -1.3977    0.2931   -1.0789 C   0  0  0  0  0  0  0  0  0  0  0  0
   -2.0857    1.3531   -0.6217 C   0  0  0  0  0  0  0  0  0  0  0  0
   -2.0057    1.8475    0.6849 N   0  0  0  0  0  0  0  0  0  0  0  0
   -1.1876    1.1351    1.5704 C   0  0  0  0  0  0  0  0  0  0  0  0
   -0.4523    0.0628    1.2352 C   0  0  0  0  0  0  0  0  0  0  0  0
   -2.7085    2.9949    1.0853 C   0  0  0  0  0  0  0  0  0  0  0  0
   -3.9749    3.3700    0.8626 C   0  0  0  0  0  0  0  0  0  0  0  0
   -5.1850    2.4459    0.0769 Cl  0  0  0  0  0  0  0  0  0  0  0  0
   -1.7193    4.1376    1.9751 Cl  0  0  0  0  0  0  0  0  0  0  0  0
    4.5649    0.5438    1.4122 C   0  0  0  0  0  0  0  0  0  0  0  0
    4.6642    1.5083    2.3392 C   0  0  0  0  0  0  0  0  0  0  0  0
    3.3883    2.5280    2.8638 Cl  0  0  0  0  0  0  0  0  0  0  0  0
    5.9990   -0.4018    1.0949 Cl  0  0  0  0  0  0  0  0  0  0  0  0
    3.5989   -1.8672    1.1051 H   0  0  0  0  0  0  0  0  0  0  0  0
    1.5809   -2.5531   -0.0860 H   0  0  0  0  0  0  0  0  0  0  0  0
    0.9370   -0.8358   -1.8493 H   0  0  0  0  0  0  0  0  0  0  0  0
    1.1738    1.6685   -1.3904 H   0  0  0  0  0  0  0  0  0  0  0  0
    3.2136    2.1276   -0.1400 H   0  0  0  0  0  0  0  0  0  0  0  0
   -0.8031   -1.5039   -0.1462 H   0  0  0  0  0  0  0  0  0  0  0  0
   -1.5154   -0.0286   -2.1083 H   0  0  0  0  0  0  0  0  0  0  0  0
   -2.7422    1.9019   -1.2893 H   0  0  0  0  0  0  0  0  0  0  0  0
   -1.1920    1.4920    2.5960 H   0  0  0  0  0  0  0  0  0  0  0  0
    0.1537   -0.4349    1.9847 H   0  0  0  0  0  0  0  0  0  0  0  0
   -4.3801    4.3091    1.2170 H   0  0  0  0  0  0  0  0  0  0  0  0
    5.5730    1.7095    2.8892 H   0  0  0  0  0  0  0  0  0  0  0  0
  2  1  1  0  0  0  0
  3  2  2  0  0  0  0
  4  3  1  0  0  0  0
  5  4  1  0  0  0  0
  6  5  2  0  0  0  0
  6  1  1  0  0  0  0
  7  4  1  0  0  0  0
  8  7  1  0  0  0  0
  9  8  2  0  0  0  0
 10  9  1  0  0  0  0
 11 10  1  0  0  0  0
 12 11  2  0  0  0  0
 12  7  1  0  0  0  0
 13 10  1  0  0  0  0
 14 13  2  0  0  0  0
 15 14  1  0  0  0  0
 16 13  1  0  0  0  0
 17  1  1  0  0  0  0
 18 17  2  0  0  0  0
 19 18  1  0  0  0  0
 20 17  1  0  0  0  0
  2 21  1  0  0  0  0
  3 22  1  0  0  0  0
  4 23  1  0  0  0  0
  5 24  1  0  0  0  0
  6 25  1  0  0  0  0
  7 26  1  0  0  0  0
  8 27  1  0  0  0  0
  9 28  1  0  0  0  0
 11 29  1  0  0  0  0
 12 30  1  0  0  0  0
 14 31  1  0  0  0  0
 18 32  1  0  0  0  0
M  END
>  <energy>
59.956906388330772

$$$$
N1(C=C[C@H](C=C1)[C@@H]1C=CN(C=C1)/C(=C\Cl)/Cl)/C(=C\Cl)/Cl
                    3D

 32 33  0  0  0  0  0  0  0  0999 V2000
   -2.4015    1.3673    0.9019 N   0  0  0  0  0  0  0  0  0  0  0  0
   -2.3497    1.1244   -0.4751 C   0  0  0  0  0  0  0  0  0  0  0  0
   -1.4927    0.2773   -1.0685 C   0  0  0  0  0  0  0  0  0  0  0  0
   -0.4539   -0.4931   -0.2680 C   0  0  0  0  0  0  0  0  0  0  0  0
   -0.6343   -0.2695    1.2249 C   0  0  0  0  0  0  0  0  0  0  0  0
   -1.5308    0.6110    1.6988 C   0  0  0  0  0  0  0  0  0  0  0  0
    0.9914   -0.1497   -0.7530 C   0  0  0  0  0  0  0  0  0  0  0  0
    2.0061   -1.1554   -0.2231 C   0  0  0  0  0  0  0  0  0  0  0  0
    3.0749   -0.7627    0.4868 C   0  0  0  0  0  0  0  0  0  0  0  0
    3.3642    0.5673    0.7915 N   0  0  0  0  0  0  0  0  0  0  0  0
    2.5004    1.5452    0.2984 C   0  0  0  0  0  0  0  0  0  0  0  0
    1.3996    1.2821   -0.4219 C   0  0  0  0  0  0  0  0  0  0  0  0
    4.4841    0.9054    1.5402 C   0  0  0  0  0  0  0  0  0  0  0  0
    5.7049    1.2611    1.1206 C   0  0  0  0  0  0  0  0  0  0  0  0
    6.1724    1.3703   -0.5260 Cl  0  0  0  0  0  0  0  0  0  0  0  0
    4.1825    0.8124    3.2492 Cl  0  0  0  0  0  0  0  0  0  0  0  0
   -3.2609    2.3339    1.4445 C   0  0  0  0  0  0  0  0  0  0  0  0
   -3.5366    3.5813    1.0328 C   0  0  0  0  0  0  0  0  0  0  0  0
   -2.7954    4.3997   -0.2803 Cl  0  0  0  0  0  0  0  0  0  0  0  0
   -4.1349    1.7775    2.8561 Cl  0  0  0  0  0  0  0  0  0  0  0  0
   -3.0899    1.6571   -1.0638 H   0  0  0  0  0  0  0  0  0  0  0  0
   -1.5311    0.1268   -2.1432 H   0  0  0  0  0  0  0  0  0  0  0  0
   -0.6423   -1.5597   -0.4594 H   0  0  0  0  0  0  0  0  0  0  0  0
    0.0089   -0.8096    1.9108 H   0  0  0  0  0  0  0  0  0  0  0  0
   -1.5945    0.7937    2.7697 H   0  0  0  0  0  0  0  0  0  0  0  0
    1.0228   -0.2392   -1.8471 H   0  0  0  0  0  0  0  0  0  0  0  0
    1.8480   -2.2080   -0.4318 H   0  0  0  0  0  0  0  0  0  0  0  0
    3.7907   -1.4845    0.8715 H   0  0  0  0  0  0  0  0  0  0  0  0
    2.7740    2.5655    0.5516 H   0  0  0  0  0  0  0  0  0  0  0  0
    0.7630    2.0935   -0.7623 H   0  0  0  0  0  0  0  0  0  0  0  0
    6.5236    1.5004    1.7864 H   0  0  0  0  0  0  0  0  0  0  0  0
   -4.2388    4.2302    1.5393 H   0  0  0  0  0  0  0  0  0  0  0  0
  2  1  1  0  0  0  0
  3  2  2  0  0  0  0
  4  3  1  0  0  0  0
  5  4  1  0  0  0  0
  6  5  2  0  0  0  0
  6  1  1  0  0  0  0
  7  4  1  0  0  0  0
  8  7  1  0  0  0  0
  9  8  2  0  0  0  0
 10  9  1  0  0  0  0
 11 10  1  0  0  0  0
 12 11  2  0  0  0  0
 12  7  1  0  0  0  0
 13 10  1  0  0  0  0
 14 13  2  0  0  0  0
 15 14  1  0  0  0  0
 16 13  1  0  0  0  0
 17  1  1  0  0  0  0
 18 17  2  0  0  0  0
 19 18  1  0  0  0  0
 20 17  1  0  0  0  0
  2 21  1  0  0  0  0
  3 22  1  0  0  0  0
  4 23  1  0  0  0  0
  5 24  1  0  0  0  0
  6 25  1  0  0  0  0
  7 26  1  0  0  0  0
  8 27  1  0  0  0  0
  9 28  1  0  0  0  0
 11 29  1  0  0  0  0
 12 30  1  0  0  0  0
 14 31  1  0  0  0  0
 18 32  1  0  0  0  0
M  END
>  <energy>
61.152407100258358

$$$$
N1(C=C[C@H](C=C1)[C@@H]1C=CN(C=C1)/C(=C\Cl)/Cl)/C(=C\Cl)/Cl
                    3D

 32 33  0  0  0  0  0  0  0  0999 V2000
   -2.7477    2.0642    0.7486 N   0  0  0  0  0  0  0  0  0  0  0  0
   -2.0494    1.7723    1.9246 C   0  0  0  0  0  0  0  0  0  0  0  0
   -0.7128    1.6677    2.0060 C   0  0  0  0  0  0  0  0  0  0  0  0
    0.1848    1.8190    0.7821 C   0  0  0  0  0  0  0  0  0  0  0  0
   -0.6309    2.3122   -0.4083 C   0  0  0  0  0  0  0  0  0  0  0  0
   -1.9708    2.3788   -0.3697 C   0  0  0  0  0  0  0  0  0  0  0  0
    0.9469    0.4861    0.4367 C   0  0  0  0  0  0  0  0  0  0  0  0
    1.7076   -0.0808    1.6293 C   0  0  0  0  0  0  0  0  0  0  0  0
    3.0385   -0.2572    1.6077 C   0  0  0  0  0  0  0  0  0  0  0  0
    3.8606    0.0227    0.5113 N   0  0  0  0  0  0  0  0  0  0  0  0
    3.2094    0.4487   -0.6514 C   0  0  0  0  0  0  0  0  0  0  0  0
    1.8875    0.6616   -0.7506 C   0  0  0  0  0  0  0  0  0  0  0  0
    5.2496   -0.1658    0.5727 C   0  0  0  0  0  0  0  0  0  0  0  0
    6.1290    0.1505    1.5352 C   0  0  0  0  0  0  0  0  0  0  0  0
    5.7903    1.0109    2.9787 Cl  0  0  0  0  0  0  0  0  0  0  0  0
    5.9111   -1.0010   -0.8187 Cl  0  0  0  0  0  0  0  0  0  0  0  0
   -4.1472    2.0674    0.6858 C   0  0  0  0  0  0  0  0  0  0  0  0
   -4.9682    1.5171   -0.2204 C   0  0  0  0  0  0  0  0  0  0  0  0
   -4.4918    0.5311   -1.5393 Cl  0  0  0  0  0  0  0  0  0  0  0  0
   -4.9067    2.9804    1.9698 Cl  0  0  0  0  0  0  0  0  0  0  0  0
   -2.6642    1.6166    2.8068 H   0  0  0  0  0  0  0  0  0  0  0  0
   -0.2500    1.4691    2.9668 H   0  0  0  0  0  0  0  0  0  0  0  0
    0.9200    2.6015    1.0180 H   0  0  0  0  0  0  0  0  0  0  0  0
   -0.1082    2.6213   -1.3072 H   0  0  0  0  0  0  0  0  0  0  0  0
   -2.5279    2.7305   -1.2343 H   0  0  0  0  0  0  0  0  0  0  0  0
    0.2062   -0.2725    0.1460 H   0  0  0  0  0  0  0  0  0  0  0  0
    1.1459   -0.3778    2.5090 H   0  0  0  0  0  0  0  0  0  0  0  0
    3.5433   -0.6898    2.4672 H   0  0  0  0  0  0  0  0  0  0  0  0
    3.8492    0.6153   -1.5132 H   0  0  0  0  0  0  0  0  0  0  0  0
    1.4703    0.9608   -1.7060 H   0  0  0  0  0  0  0  0  0  0  0  0
    7.1858   -0.0739    1.4635 H   0  0  0  0  0  0  0  0  0  0  0  0
   -6.0456    1.6059   -0.1737 H   0  0  0  0  0  0  0  0  0  0  0  0
  2  1  1  0  0  0  0
  3  2  2  0  0  0  0
  4  3  1  0  0  0  0
  5  4  1  0  0  0  0
  6  5  2  0  0  0  0
  6  1  1  0  0  0  0
  7  4  1  0  0  0  0
  8  7  1  0  0  0  0
  9  8  2  0  0  0  0
 10  9  1  0  0  0  0
 11 10  1  0  0  0  0
 12 11  2  0  0  0  0
 12  7  1  0  0  0  0
 13 10  1  0  0  0  0
 14 13  2  0  0  0  0
 15 14  1  0  0  0  0
 16 13  1  0  0  0  0
 17  1  1  0  0  0  0
 18 17  2  0  0  0  0
 19 18  1  0  0  0  0
 20 17  1  0  0  0  0
  2 21  1  0  0  0  0
  3 22  1  0  0  0  0
  4 23  1  0  0  0  0
  5 24  1  0  0  0  0
  6 25  1  0  0  0  0
  7 26  1  0  0  0  0
  8 27  1  0  0  0  0
  9 28  1  0  0  0  0
 11 29  1  0  0  0  0
 12 30  1  0  0  0  0
 14 31  1  0  0  0  0
 18 32  1  0  0  0  0
M  END
>  <energy>
61.888356579519687

$$$$
N1(C=C[C@H](C=C1)[C@@H]1C=CN(C=C1)/C(=C\Cl)/Cl)/C(=C\Cl)/Cl
                    3D

 32 33  0  0  0  0  0  0  0  0999 V2000
    3.9089   -0.0410    0.7466 N   0  0  0  0  0  0  0  0  0  0  0  0
    3.1028   -0.4549    1.8123 C   0  0  0  0  0  0  0  0  0  0  0  0
    1.7595   -0.4659    1.7879 C   0  0  0  0  0  0  0  0  0  0  0  0
    0.9696    0.0330    0.5808 C   0  0  0  0  0  0  0  0  0  0  0  0
    1.9116    0.2976   -0.5872 C   0  0  0  0  0  0  0  0  0  0  0  0
    3.2462    0.2686   -0.4444 C   0  0  0  0  0  0  0  0  0  0  0  0
    0.1050    1.2953    0.9496 C   0  0  0  0  0  0  0  0  0  0  0  0
   -0.9249    0.9719    2.0278 C   0  0  0  0  0  0  0  0  0  0  0  0
   -2.2425    1.1377    1.8264 C   0  0  0  0  0  0  0  0  0  0  0  0
   -2.8053    1.6464    0.6517 N   0  0  0  0  0  0  0  0  0  0  0  0
   -1.9111    2.0485   -0.3425 C   0  0  0  0  0  0  0  0  0  0  0  0
   -0.5768    1.9233   -0.2607 C   0  0  0  0  0  0  0  0  0  0  0  0
   -4.1871    1.8226    0.5127 C   0  0  0  0  0  0  0  0  0  0  0  0
   -4.8928    2.8946    0.1261 C   0  0  0  0  0  0  0  0  0  0  0  0
   -4.2558    4.4490   -0.2173 Cl  0  0  0  0  0  0  0  0  0  0  0  0
   -5.0996    0.3717    0.8625 Cl  0  0  0  0  0  0  0  0  0  0  0  0
    5.3053    0.0399    0.8432 C   0  0  0  0  0  0  0  0  0  0  0  0
    6.1417    1.0086    0.4412 C   0  0  0  0  0  0  0  0  0  0  0  0
    5.6879    2.5166   -0.2376 Cl  0  0  0  0  0  0  0  0  0  0  0  0
    6.0474   -1.3777    1.5511 Cl  0  0  0  0  0  0  0  0  0  0  0  0
    3.6340   -0.7722    2.7055 H   0  0  0  0  0  0  0  0  0  0  0  0
    1.2136   -0.8299    2.6514 H   0  0  0  0  0  0  0  0  0  0  0  0
    0.2996   -0.7817    0.2718 H   0  0  0  0  0  0  0  0  0  0  0  0
    1.4837    0.4992   -1.5635 H   0  0  0  0  0  0  0  0  0  0  0  0
    3.8926    0.4535   -1.2980 H   0  0  0  0  0  0  0  0  0  0  0  0
    0.7719    2.0639    1.3661 H   0  0  0  0  0  0  0  0  0  0  0  0
   -0.5766    0.6198    2.9924 H   0  0  0  0  0  0  0  0  0  0  0  0
   -2.9511    0.9124    2.6191 H   0  0  0  0  0  0  0  0  0  0  0  0
   -2.3667    2.4814   -1.2285 H   0  0  0  0  0  0  0  0  0  0  0  0
    0.0418    2.2986   -1.0693 H   0  0  0  0  0  0  0  0  0  0  0  0
   -5.9717    2.8932    0.0400 H   0  0  0  0  0  0  0  0  0  0  0  0
    7.2162    0.9460    0.5526 H   0  0  0  0  0  0  0  0  0  0  0  0
  2  1  1  0  0  0  0
  3  2  2  0  0  0  0
  4  3  1  0  0  0  0
  5  4  1  0  0  0  0
  6  5  2  0  0  0  0
  6  1  1  0  0  0  0
  7  4  1  0  0  0  0
  8  7  1  0  0  0  0
  9  8  2  0  0  0  0
 10  9  1  0  0  0  0
 11 10  1  0  0  0  0
 12 11  2  0  0  0  0
 12  7  1  0  0  0  0
 13 10  1  0  0  0  0
 14 13  2  0  0  0  0
 15 14  1  0  0  0  0
 16 13  1  0  0  0  0
 17  1  1  0  0  0  0
 18 17  2  0  0  0  0
 19 18  1  0  0  0  0
 20 17  1  0  0  0  0
  2 21  1  0  0  0  0
  3 22  1  0  0  0  0
  4 23  1  0  0  0  0
  5 24  1  0  0  0  0
  6 25  1  0  0  0  0
  7 26  1  0  0  0  0
  8 27  1  0  0  0  0
  9 28  1  0  0  0  0
 11 29  1  0  0  0  0
 12 30  1  0  0  0  0
 14 31  1  0  0  0  0
 18 32  1  0  0  0  0
M  END
>  <energy>
62.098689706598705

$$$$
N1(C=C[C@H](C=C1)[C@@H]1C=CN(C=C1)/C(=C\Cl)/Cl)/C(=C\Cl)/Cl
                    3D

 32 33  0  0  0  0  0  0  0  0999 V2000
   -2.8001    1.6050    0.6872 N   0  0  0  0  0  0  0  0  0  0  0  0
   -1.7050    2.4568    0.5198 C   0  0  0  0  0  0  0  0  0  0  0  0
   -0.4700    2.0568    0.1721 C   0  0  0  0  0  0  0  0  0  0  0  0
   -0.1335    0.5945   -0.0476 C   0  0  0  0  0  0  0  0  0  0  0  0
   -1.3832   -0.2711    0.0701 C   0  0  0  0  0  0  0  0  0  0  0  0
   -2.5698    0.2467    0.4302 C   0  0  0  0  0  0  0  0  0  0  0  0
    0.9985    0.0125    0.8819 C   0  0  0  0  0  0  0  0  0  0  0  0
    1.8466    1.0423    1.6127 C   0  0  0  0  0  0  0  0  0  0  0  0
    3.1866    1.0486    1.5211 C   0  0  0  0  0  0  0  0  0  0  0  0
    3.9293    0.1238    0.7895 N   0  0  0  0  0  0  0  0  0  0  0  0
    3.2163   -0.8574    0.0969 C   0  0  0  0  0  0  0  0  0  0  0  0
    1.8756   -0.9569    0.0929 C   0  0  0  0  0  0  0  0  0  0  0  0
    5.3248    0.1505    0.7967 C   0  0  0  0  0  0  0  0  0  0  0  0
    6.1629    1.1206    0.4114 C   0  0  0  0  0  0  0  0  0  0  0  0
    5.6883    2.5940   -0.3217 Cl  0  0  0  0  0  0  0  0  0  0  0  0
    6.0198   -1.2926    1.4901 Cl  0  0  0  0  0  0  0  0  0  0  0  0
   -4.0639    2.0957    1.0542 C   0  0  0  0  0  0  0  0  0  0  0  0
   -4.7214    3.2004    0.6680 C   0  0  0  0  0  0  0  0  0  0  0  0
   -4.2382    4.3026   -0.5520 Cl  0  0  0  0  0  0  0  0  0  0  0  0
   -4.8737    1.1131    2.2568 Cl  0  0  0  0  0  0  0  0  0  0  0  0
   -1.8934    3.5083    0.7028 H   0  0  0  0  0  0  0  0  0  0  0  0
    0.3179    2.7870    0.0320 H   0  0  0  0  0  0  0  0  0  0  0  0
    0.2028    0.5214   -1.0901 H   0  0  0  0  0  0  0  0  0  0  0  0
   -1.3037   -1.3331   -0.1366 H   0  0  0  0  0  0  0  0  0  0  0  0
   -3.4413   -0.3969    0.4877 H   0  0  0  0  0  0  0  0  0  0  0  0
    0.5318   -0.5970    1.6681 H   0  0  0  0  0  0  0  0  0  0  0  0
    1.3469    1.7687    2.2452 H   0  0  0  0  0  0  0  0  0  0  0  0
    3.7722    1.7850    2.0631 H   0  0  0  0  0  0  0  0  0  0  0  0
    3.8290   -1.5566   -0.4647 H   0  0  0  0  0  0  0  0  0  0  0  0
    1.3968   -1.7482   -0.4772 H   0  0  0  0  0  0  0  0  0  0  0  0
    7.2401    1.0491    0.4900 H   0  0  0  0  0  0  0  0  0  0  0  0
   -5.6889    3.4751    1.0685 H   0  0  0  0  0  0  0  0  0  0  0  0
  2  1  1  0  0  0  0
  3  2  2  0  0  0  0
  4  3  1  0  0  0  0
  5  4  1  0  0  0  0
  6  5  2  0  0  0  0
  6  1  1  0  0  0  0
  7  4  1  0  0  0  0
  8  7  1  0  0  0  0
  9  8  2  0  0  0  0
 10  9  1  0  0  0  0
 11 10  1  0  0  0  0
 12 11  2  0  0  0  0
 12  7  1  0  0  0  0
 13 10  1  0  0  0  0
 14 13  2  0  0  0  0
 15 14  1  0  0  0  0
 16 13  1  0  0  0  0
 17  1  1  0  0  0  0
 18 17  2  0  0  0  0
 19 18  1  0  0  0  0
 20 17  1  0  0  0  0
  2 21  1  0  0  0  0
  3 22  1  0  0  0  0
  4 23  1  0  0  0  0
  5 24  1  0  0  0  0
  6 25  1  0  0  0  0
  7 26  1  0  0  0  0
  8 27  1  0  0  0  0
  9 28  1  0  0  0  0
 11 29  1  0  0  0  0
 12 30  1  0  0  0  0
 14 31  1  0  0  0  0
 18 32  1  0  0  0  0
M  END
>  <energy>
64.446992946575833

$$$$
