c1(ccnc(c1)c1cc(ccn1)C)C
                    3D

 26 27  0  0  0  0  0  0  0  0999 V2000
    3.1093   -0.3718   -0.0531 C   0  0  0  0  0  0  0  0  0  0  0  0
    3.1441   -1.0769   -1.2558 C   0  0  0  0  0  0  0  0  0  0  0  0
    1.9903   -1.1432   -2.0196 C   0  0  0  0  0  0  0  0  0  0  0  0
    0.8250   -0.5493   -1.6817 N   0  0  0  0  0  0  0  0  0  0  0  0
    0.7878    0.1513   -0.5148 C   0  0  0  0  0  0  0  0  0  0  0  0
    1.9173    0.2658    0.3015 C   0  0  0  0  0  0  0  0  0  0  0  0
   -0.5078    0.7735   -0.1515 C   0  0  0  0  0  0  0  0  0  0  0  0
   -1.5988    0.8152   -1.0254 C   0  0  0  0  0  0  0  0  0  0  0  0
   -2.8014    1.4071   -0.6192 C   0  0  0  0  0  0  0  0  0  0  0  0
   -2.8684    1.9622    0.6587 C   0  0  0  0  0  0  0  0  0  0  0  0
   -1.7535    1.8814    1.4778 C   0  0  0  0  0  0  0  0  0  0  0  0
   -0.5900    1.3076    1.1019 N   0  0  0  0  0  0  0  0  0  0  0  0
   -3.9763    1.4730   -1.5513 C   0  0  0  0  0  0  0  0  0  0  0  0
    4.3194   -0.2595    0.8195 C   0  0  0  0  0  0  0  0  0  0  0  0
    4.0486   -1.5625   -1.5979 H   0  0  0  0  0  0  0  0  0  0  0  0
    1.9653   -1.7021   -2.9532 H   0  0  0  0  0  0  0  0  0  0  0  0
    1.8662    0.8493    1.2193 H   0  0  0  0  0  0  0  0  0  0  0  0
   -1.5070    0.3932   -2.0210 H   0  0  0  0  0  0  0  0  0  0  0  0
   -3.7658    2.4555    1.0121 H   0  0  0  0  0  0  0  0  0  0  0  0
   -1.7619    2.2888    2.4860 H   0  0  0  0  0  0  0  0  0  0  0  0
   -3.9890    2.4369   -2.0637 H   0  0  0  0  0  0  0  0  0  0  0  0
   -3.9345    0.6805   -2.3068 H   0  0  0  0  0  0  0  0  0  0  0  0
   -4.9153    1.3447   -1.0055 H   0  0  0  0  0  0  0  0  0  0  0  0
    4.8741   -1.2025    0.8429 H   0  0  0  0  0  0  0  0  0  0  0  0
    4.0438   -0.0259    1.8549 H   0  0  0  0  0  0  0  0  0  0  0  0
    4.9701    0.5346    0.4484 H   0  0  0  0  0  0  0  0  0  0  0  0
  2  1  2  0  0  0  0
  3  2  1  0  0  0  0
  4  3  2  0  0  0  0
  5  4  1  0  0  0  0
  6  5  2  0  0  0  0
  6  1  1  0  0  0  0
  7  5  1  0  0  0  0
  8  7  2  0  0  0  0
  9  8  1  0  0  0  0
 10  9  2  0  0  0  0
 11 10  1  0  0  0  0
 12 11  2  0  0  0  0
 12  7  1  0  0  0  0
 13  9  1  0  0  0  0
 14  1  1  0  0  0  0
  2 15  1  0  0  0  0
  3 16  1  0  0  0  0
  6 17  1  0  0  0  0
  8 18  1  0  0  0  0
 10 19  1  0  0  0  0
 11 20  1  0  0  0  0
 13 21  1  0  0  0  0
 13 22  1  0  0  0  0
 13 23  1  0  0  0  0
 14 24  1  0  0  0  0
 14 25  1  0  0  0  0
 14 26  1  0  0  0  0
M  END
>  <energy>
59.381160617710982

$$$$
