c1ccc2n(c1)cc(n1c2cccc1)c1ccccc1
                    3D

 34 37  0  0  0  0  0  0  0  0999 V2000
   -2.9386    3.3962   -0.1817 C   0  0  0  0  0  0  0  0  0  0  0  0
   -3.8515    2.3923   -0.6755 C   0  0  0  0  0  0  0  0  0  0  0  0
   -3.4569    1.1132   -0.8055 C   0  0  0  0  0  0  0  0  0  0  0  0
   -2.0880    0.6848   -0.4633 C   0  0  0  0  0  0  0  0  0  0  0  0
   -1.2184    1.7182    0.0182 N   0  0  0  0  0  0  0  0  0  0  0  0
   -1.6893    3.0255    0.1344 C   0  0  0  0  0  0  0  0  0  0  0  0
    0.0909    1.3731    0.3426 C   0  0  0  0  0  0  0  0  0  0  0  0
    0.5632    0.1150    0.2285 C   0  0  0  0  0  0  0  0  0  0  0  0
   -0.2649   -0.9308   -0.2323 N   0  0  0  0  0  0  0  0  0  0  0  0
   -1.6261   -0.6011   -0.5844 C   0  0  0  0  0  0  0  0  0  0  0  0
   -2.4543   -1.7175   -1.0783 C   0  0  0  0  0  0  0  0  0  0  0  0
   -1.9694   -2.9666   -1.1893 C   0  0  0  0  0  0  0  0  0  0  0  0
   -0.6089   -3.2566   -0.8102 C   0  0  0  0  0  0  0  0  0  0  0  0
    0.1621   -2.2575   -0.3587 C   0  0  0  0  0  0  0  0  0  0  0  0
    1.9779   -0.1103    0.5688 C   0  0  0  0  0  0  0  0  0  0  0  0
    2.9345   -0.2295   -0.4486 C   0  0  0  0  0  0  0  0  0  0  0  0
    4.2803   -0.4183   -0.1294 C   0  0  0  0  0  0  0  0  0  0  0  0
    4.6774   -0.4854    1.2057 C   0  0  0  0  0  0  0  0  0  0  0  0
    3.7315   -0.3705    2.2240 C   0  0  0  0  0  0  0  0  0  0  0  0
    2.3843   -0.1846    1.9076 C   0  0  0  0  0  0  0  0  0  0  0  0
   -3.2779    4.4192   -0.0795 H   0  0  0  0  0  0  0  0  0  0  0  0
   -4.8597    2.6994   -0.9371 H   0  0  0  0  0  0  0  0  0  0  0  0
   -4.1742    0.3940   -1.1772 H   0  0  0  0  0  0  0  0  0  0  0  0
   -0.9713    3.7501    0.5052 H   0  0  0  0  0  0  0  0  0  0  0  0
    0.7158    2.1921    0.6849 H   0  0  0  0  0  0  0  0  0  0  0  0
   -3.4818   -1.5455   -1.3686 H   0  0  0  0  0  0  0  0  0  0  0  0
   -2.5858   -3.7787   -1.5602 H   0  0  0  0  0  0  0  0  0  0  0  0
   -0.2354   -4.2701   -0.8938 H   0  0  0  0  0  0  0  0  0  0  0  0
    1.1861   -2.4583   -0.0610 H   0  0  0  0  0  0  0  0  0  0  0  0
    2.6296   -0.1798   -1.4921 H   0  0  0  0  0  0  0  0  0  0  0  0
    5.0182   -0.5144   -0.9213 H   0  0  0  0  0  0  0  0  0  0  0  0
    5.7267   -0.6281    1.4519 H   0  0  0  0  0  0  0  0  0  0  0  0
    4.0430   -0.4261    3.2639 H   0  0  0  0  0  0  0  0  0  0  0  0
    1.6513   -0.1012    2.7076 H   0  0  0  0  0  0  0  0  0  0  0  0
  2  1  1  0  0  0  0
  3  2  2  0  0  0  0
  4  3  1  0  0  0  0
  5  4  1  0  0  0  0
  6  5  1  0  0  0  0
  6  1  2  0  0  0  0
  7  5  1  0  0  0  0
  8  7  2  0  0  0  0
  9  8  1  0  0  0  0
 10  9  1  0  0  0  0
 10  4  2  0  0  0  0
 11 10  1  0  0  0  0
 12 11  2  0  0  0  0
 13 12  1  0  0  0  0
 14 13  2  0  0  0  0
 14  9  1  0  0  0  0
 15  8  1  0  0  0  0
 16 15  2  0  0  0  0
 17 16  1  0  0  0  0
 18 17  2  0  0  0  0
 19 18  1  0  0  0  0
 20 19  2  0  0  0  0
 20 15  1  0  0  0  0
  1 21  1  0  0  0  0
  2 22  1  0  0  0  0
  3 23  1  0  0  0  0
  6 24  1  0  0  0  0
  7 25  1  0  0  0  0
 11 26  1  0  0  0  0
 12 27  1  0  0  0  0
 13 28  1  0  0  0  0
 14 29  1  0  0  0  0
 16 30  1  0  0  0  0
 17 31  1  0  0  0  0
 18 32  1  0  0  0  0
 19 33  1  0  0  0  0
 20 34  1  0  0  0  0
M  END
>  <energy>
89.244555386757384

$$$$
