C1=C(C(=O)c2c(C1=O)c(n1c2CCC1)C(=O)OCC)C
                    3D

 35 37  0  0  0  0  0  0  0  0999 V2000
    2.9692    1.1639   -0.0974 C   0  0  0  0  0  0  0  0  0  0  0  0
    3.3731    0.1211   -0.8499 C   0  0  0  0  0  0  0  0  0  0  0  0
    2.5052   -1.0813   -1.0919 C   0  0  0  0  0  0  0  0  0  0  0  0
    2.8706   -2.0374   -1.7629 O   0  0  0  0  0  0  0  0  0  0  0  0
    1.2158   -0.9776   -0.4455 C   0  0  0  0  0  0  0  0  0  0  0  0
    0.7776    0.1498    0.3311 C   0  0  0  0  0  0  0  0  0  0  0  0
    1.6425    1.2857    0.5739 C   0  0  0  0  0  0  0  0  0  0  0  0
    1.3748    2.2636    1.2556 O   0  0  0  0  0  0  0  0  0  0  0  0
   -0.5332   -0.0890    0.7651 C   0  0  0  0  0  0  0  0  0  0  0  0
   -0.8093   -1.3534    0.3432 N   0  0  0  0  0  0  0  0  0  0  0  0
    0.1903   -1.8800   -0.4178 C   0  0  0  0  0  0  0  0  0  0  0  0
   -0.1727   -3.2203   -0.9230 C   0  0  0  0  0  0  0  0  0  0  0  0
   -1.6988   -3.2510   -0.6685 C   0  0  0  0  0  0  0  0  0  0  0  0
   -1.9620   -2.2333    0.4545 C   0  0  0  0  0  0  0  0  0  0  0  0
   -1.4777    0.7009    1.5232 C   0  0  0  0  0  0  0  0  0  0  0  0
   -2.3386    0.2304    2.2564 O   0  0  0  0  0  0  0  0  0  0  0  0
   -1.3386    2.0397    1.3386 O   0  0  0  0  0  0  0  0  0  0  0  0
   -1.6991    2.5160    0.0363 C   0  0  0  0  0  0  0  0  0  0  0  0
   -1.6888    4.0320    0.0661 C   0  0  0  0  0  0  0  0  0  0  0  0
    4.7253    0.0685   -1.4955 C   0  0  0  0  0  0  0  0  0  0  0  0
    3.6195    2.0159    0.0791 H   0  0  0  0  0  0  0  0  0  0  0  0
    0.3311   -4.0004   -0.3436 H   0  0  0  0  0  0  0  0  0  0  0  0
    0.0585   -3.3527   -1.9831 H   0  0  0  0  0  0  0  0  0  0  0  0
   -2.2219   -2.9254   -1.5780 H   0  0  0  0  0  0  0  0  0  0  0  0
   -2.0630   -4.2533   -0.4233 H   0  0  0  0  0  0  0  0  0  0  0  0
   -1.9323   -2.6889    1.4485 H   0  0  0  0  0  0  0  0  0  0  0  0
   -2.8810   -1.6632    0.3021 H   0  0  0  0  0  0  0  0  0  0  0  0
   -0.9850    2.1677   -0.7159 H   0  0  0  0  0  0  0  0  0  0  0  0
   -2.7004    2.1547   -0.2221 H   0  0  0  0  0  0  0  0  0  0  0  0
   -0.6967    4.4048    0.3437 H   0  0  0  0  0  0  0  0  0  0  0  0
   -1.9610    4.4451   -0.9102 H   0  0  0  0  0  0  0  0  0  0  0  0
   -2.3924    4.4107    0.8154 H   0  0  0  0  0  0  0  0  0  0  0  0
    4.6309    0.0129   -2.5853 H   0  0  0  0  0  0  0  0  0  0  0  0
    5.2818   -0.8086   -1.1491 H   0  0  0  0  0  0  0  0  0  0  0  0
    5.3262    0.9535   -1.2597 H   0  0  0  0  0  0  0  0  0  0  0  0
  2  1  2  0  0  0  0
  3  2  1  0  0  0  0
  4  3  2  0  0  0  0
  5  3  1  0  0  0  0
  6  5  1  0  0  0  0
  7  6  1  0  0  0  0
  7  1  1  0  0  0  0
  8  7  2  0  0  0  0
  9  6  2  0  0  0  0
 10  9  1  0  0  0  0
 11 10  1  0  0  0  0
 11  5  2  0  0  0  0
 12 11  1  0  0  0  0
 13 12  1  0  0  0  0
 14 13  1  0  0  0  0
 14 10  1  0  0  0  0
 15  9  1  0  0  0  0
 16 15  2  0  0  0  0
 17 15  1  0  0  0  0
 18 17  1  0  0  0  0
 19 18  1  0  0  0  0
 20  2  1  0  0  0  0
  1 21  1  0  0  0  0
 12 22  1  0  0  0  0
 12 23  1  0  0  0  0
 13 24  1  0  0  0  0
 13 25  1  0  0  0  0
 14 26  1  0  0  0  0
 14 27  1  0  0  0  0
 18 28  1  0  0  0  0
 18 29  1  0  0  0  0
 19 30  1  0  0  0  0
 19 31  1  0  0  0  0
 19 32  1  0  0  0  0
 20 33  1  0  0  0  0
 20 34  1  0  0  0  0
 20 35  1  0  0  0  0
M  END
>  <energy>
48.522627623021314

$$$$
