c1ccc2c(c1)Nc1c(S2)cccc1
                    2D

 23 25  0  0  0  0  0  0  0  0999 V2000
   -3.6601    0.3546    0.7446 C   0  0  0  0  0  0  0  0  0  0  0  0
   -3.8137   -0.6825   -0.1690 C   0  0  0  0  0  0  0  0  0  0  0  0
   -2.6917   -1.2278   -0.7935 C   0  0  0  0  0  0  0  0  0  0  0  0
   -1.4061   -0.7413   -0.5097 C   0  0  0  0  0  0  0  0  0  0  0  0
   -1.2450    0.3054    0.4141 C   0  0  0  0  0  0  0  0  0  0  0  0
   -2.3848    0.8447    1.0327 C   0  0  0  0  0  0  0  0  0  0  0  0
    0.0160    0.8340    0.7334 N   0  0  0  0  0  0  0  0  0  0  0  0
    1.2593    0.4203    0.2287 C   0  0  0  0  0  0  0  0  0  0  0  0
    1.3775   -0.6135   -0.7160 C   0  0  0  0  0  0  0  0  0  0  0  0
   -0.0318   -1.5015   -1.3595 S   0  0  0  0  0  0  0  0  0  0  0  0
    2.6463   -0.9824   -1.1892 C   0  0  0  0  0  0  0  0  0  0  0  0
    3.7936   -0.3332   -0.7326 C   0  0  0  0  0  0  0  0  0  0  0  0
    3.6821    0.6914    0.2010 C   0  0  0  0  0  0  0  0  0  0  0  0
    2.4237    1.0651    0.6769 C   0  0  0  0  0  0  0  0  0  0  0  0
   -4.5309    0.7836    1.2335 H   0  0  0  0  0  0  0  0  0  0  0  0
   -4.8039   -1.0680   -0.3974 H   0  0  0  0  0  0  0  0  0  0  0  0
   -2.8265   -2.0381   -1.5065 H   0  0  0  0  0  0  0  0  0  0  0  0
   -2.2868    1.6562    1.7490 H   0  0  0  0  0  0  0  0  0  0  0  0
    0.0331    1.5731    1.4214 H   0  0  0  0  0  0  0  0  0  0  0  0
    2.7480   -1.7817   -1.9200 H   0  0  0  0  0  0  0  0  0  0  0  0
    4.7704   -0.6283   -1.1068 H   0  0  0  0  0  0  0  0  0  0  0  0
    4.5727    1.2010    0.5597 H   0  0  0  0  0  0  0  0  0  0  0  0
    2.3586    1.8689    1.4054 H   0  0  0  0  0  0  0  0  0  0  0  0
  2  1  2  0  0  0  0
  3  2  1  0  0  0  0
  4  3  2  0  0  0  0
  5  4  1  0  0  0  0
  6  5  2  0  0  0  0
  6  1  1  0  0  0  0
  7  5  1  0  0  0  0
  8  7  1  0  0  0  0
  9  8  2  0  0  0  0
 10  9  1  0  0  0  0
 10  4  1  0  0  0  0
 11  9  1  0  0  0  0
 12 11  2  0  0  0  0
 13 12  1  0  0  0  0
 14 13  2  0  0  0  0
 14  8  1  0  0  0  0
  1 15  1  0  0  0  0
  2 16  1  0  0  0  0
  3 17  1  0  0  0  0
  6 18  1  0  0  0  0
  7 19  1  0  0  0  0
 11 20  1  0  0  0  0
 12 21  1  0  0  0  0
 13 22  1  0  0  0  0
 14 23  1  0  0  0  0
M  END
>  <energy>
51.520117657753332

$$$$
