C1(=C(C(=O)c2c(C1=O)c1n(c2)CCC1)C)C
                    3D

 29 31  0  0  0  0  0  0  0  0999 V2000
    2.0600    0.6026    0.7720 C   0  0  0  0  0  0  0  0  0  0  0  0
    2.4564    0.1785   -0.4568 C   0  0  0  0  0  0  0  0  0  0  0  0
    1.4953   -0.3282   -1.5115 C   0  0  0  0  0  0  0  0  0  0  0  0
    1.8663   -0.7251   -2.6084 O   0  0  0  0  0  0  0  0  0  0  0  0
    0.1165   -0.3040   -1.0859 C   0  0  0  0  0  0  0  0  0  0  0  0
   -0.2962    0.1595    0.1970 C   0  0  0  0  0  0  0  0  0  0  0  0
    0.6104    0.6459    1.2053 C   0  0  0  0  0  0  0  0  0  0  0  0
    0.2595    1.0557    2.3046 O   0  0  0  0  0  0  0  0  0  0  0  0
   -1.6606    0.0306    0.2266 C   0  0  0  0  0  0  0  0  0  0  0  0
   -2.0575   -0.4973   -0.9664 N   0  0  0  0  0  0  0  0  0  0  0  0
   -1.0112   -0.7042   -1.7913 C   0  0  0  0  0  0  0  0  0  0  0  0
   -3.4919   -0.6989   -1.0531 C   0  0  0  0  0  0  0  0  0  0  0  0
   -4.0011    0.1610    0.1177 C   0  0  0  0  0  0  0  0  0  0  0  0
   -2.8183    0.2630    1.1142 C   0  0  0  0  0  0  0  0  0  0  0  0
    3.8838    0.1659   -0.9372 C   0  0  0  0  0  0  0  0  0  0  0  0
    2.9924    1.0590    1.8634 C   0  0  0  0  0  0  0  0  0  0  0  0
   -1.1198   -1.1134   -2.7872 H   0  0  0  0  0  0  0  0  0  0  0  0
   -3.6836   -1.7651   -0.9003 H   0  0  0  0  0  0  0  0  0  0  0  0
   -3.8558   -0.3617   -2.0258 H   0  0  0  0  0  0  0  0  0  0  0  0
   -4.2420    1.1663   -0.2538 H   0  0  0  0  0  0  0  0  0  0  0  0
   -4.9069   -0.2447    0.5784 H   0  0  0  0  0  0  0  0  0  0  0  0
   -2.8838   -0.5240    1.8719 H   0  0  0  0  0  0  0  0  0  0  0  0
   -2.7924    1.2396    1.6045 H   0  0  0  0  0  0  0  0  0  0  0  0
    4.5508    0.7799   -0.3283 H   0  0  0  0  0  0  0  0  0  0  0  0
    3.9558    0.5716   -1.9525 H   0  0  0  0  0  0  0  0  0  0  0  0
    4.2704   -0.8584   -0.9435 H   0  0  0  0  0  0  0  0  0  0  0  0
    2.7272    0.5929    2.8193 H   0  0  0  0  0  0  0  0  0  0  0  0
    4.0358    0.7894    1.6839 H   0  0  0  0  0  0  0  0  0  0  0  0
    2.9358    2.1463    1.9800 H   0  0  0  0  0  0  0  0  0  0  0  0
  2  1  2  0  0  0  0
  3  2  1  0  0  0  0
  4  3  2  0  0  0  0
  5  3  1  0  0  0  0
  6  5  1  0  0  0  0
  7  6  1  0  0  0  0
  7  1  1  0  0  0  0
  8  7  2  0  0  0  0
  9  6  2  0  0  0  0
 10  9  1  0  0  0  0
 11 10  1  0  0  0  0
 11  5  2  0  0  0  0
 12 10  1  0  0  0  0
 13 12  1  0  0  0  0
 14 13  1  0  0  0  0
 14  9  1  0  0  0  0
 15  2  1  0  0  0  0
 16  1  1  0  0  0  0
 11 17  1  0  0  0  0
 12 18  1  0  0  0  0
 12 19  1  0  0  0  0
 13 20  1  0  0  0  0
 13 21  1  0  0  0  0
 14 22  1  0  0  0  0
 14 23  1  0  0  0  0
 15 24  1  0  0  0  0
 15 25  1  0  0  0  0
 15 26  1  0  0  0  0
 16 27  1  0  0  0  0
 16 28  1  0  0  0  0
 16 29  1  0  0  0  0
M  END
>  <energy>
58.937081640025411

$$$$
