N1(C=C[C@H](C=C1)[C@H]1C=CN(C=C1)CC#N)CC#N
                    3D

 32 33  0  0  0  0  0  0  0  0999 V2000
    2.8780    0.8214   -0.7554 N   0  0  0  0  0  0  0  0  0  0  0  0
    2.8449    0.6543    0.6262 C   0  0  0  0  0  0  0  0  0  0  0  0
    1.9908   -0.1699    1.2536 C   0  0  0  0  0  0  0  0  0  0  0  0
    0.9767   -1.0034    0.4824 C   0  0  0  0  0  0  0  0  0  0  0  0
    1.1009   -0.7833   -1.0208 C   0  0  0  0  0  0  0  0  0  0  0  0
    2.0032    0.0678   -1.5318 C   0  0  0  0  0  0  0  0  0  0  0  0
   -0.4927   -0.7966    0.9712 C   0  0  0  0  0  0  0  0  0  0  0  0
   -0.7296   -1.4635    2.3237 C   0  0  0  0  0  0  0  0  0  0  0  0
   -1.2534   -0.7820    3.3553 C   0  0  0  0  0  0  0  0  0  0  0  0
   -1.6224    0.5573    3.2881 N   0  0  0  0  0  0  0  0  0  0  0  0
   -1.4121    1.2404    2.0952 C   0  0  0  0  0  0  0  0  0  0  0  0
   -0.9059    0.6677    0.9917 C   0  0  0  0  0  0  0  0  0  0  0  0
   -2.1276    1.2516    4.4931 C   0  0  0  0  0  0  0  0  0  0  0  0
   -1.0368    1.6291    5.4219 C   0  0  0  0  0  0  0  0  0  0  0  0
   -0.1975    1.9262    6.1710 N   0  0  0  0  0  0  0  0  0  0  0  0
    3.8364    1.7568   -1.3864 C   0  0  0  0  0  0  0  0  0  0  0  0
    5.0990    1.1070   -1.7949 C   0  0  0  0  0  0  0  0  0  0  0  0
    6.1004    0.6376   -2.1493 N   0  0  0  0  0  0  0  0  0  0  0  0
    3.5629    1.2457    1.1868 H   0  0  0  0  0  0  0  0  0  0  0  0
    2.0050   -0.2481    2.3372 H   0  0  0  0  0  0  0  0  0  0  0  0
    1.2389   -2.0574    0.6502 H   0  0  0  0  0  0  0  0  0  0  0  0
    0.4511   -1.3502   -1.6807 H   0  0  0  0  0  0  0  0  0  0  0  0
    2.0982    0.2044   -2.6055 H   0  0  0  0  0  0  0  0  0  0  0  0
   -1.1600   -1.3126    0.2659 H   0  0  0  0  0  0  0  0  0  0  0  0
   -0.4708   -2.5130    2.4406 H   0  0  0  0  0  0  0  0  0  0  0  0
   -1.4139   -1.2597    4.3204 H   0  0  0  0  0  0  0  0  0  0  0  0
   -1.6799    2.2921    2.1052 H   0  0  0  0  0  0  0  0  0  0  0  0
   -0.7515    1.2515    0.0912 H   0  0  0  0  0  0  0  0  0  0  0  0
   -2.6984    2.1447    4.2062 H   0  0  0  0  0  0  0  0  0  0  0  0
   -2.8428    0.5982    5.0140 H   0  0  0  0  0  0  0  0  0  0  0  0
    4.0573    2.5908   -0.7061 H   0  0  0  0  0  0  0  0  0  0  0  0
    3.3739    2.2146   -2.2710 H   0  0  0  0  0  0  0  0  0  0  0  0
  2  1  1  0  0  0  0
  3  2  2  0  0  0  0
  4  3  1  0  0  0  0
  5  4  1  0  0  0  0
  6  5  2  0  0  0  0
  6  1  1  0  0  0  0
  7  4  1  0  0  0  0
  8  7  1  0  0  0  0
  9  8  2  0  0  0  0
 10  9  1  0  0  0  0
 11 10  1  0  0  0  0
 12 11  2  0  0  0  0
 12  7  1  0  0  0  0
 13 10  1  0  0  0  0
 14 13  1  0  0  0  0
 15 14  3  0  0  0  0
 16  1  1  0  0  0  0
 17 16  1  0  0  0  0
 18 17  3  0  0  0  0
  2 19  1  0  0  0  0
  3 20  1  0  0  0  0
  4 21  1  0  0  0  0
  5 22  1  0  0  0  0
  6 23  1  0  0  0  0
  7 24  1  0  0  0  0
  8 25  1  0  0  0  0
  9 26  1  0  0  0  0
 11 27  1  0  0  0  0
 12 28  1  0  0  0  0
 13 29  1  0  0  0  0
 13 30  1  0  0  0  0
 16 31  1  0  0  0  0
 16 32  1  0  0  0  0
M  END
>  <energy>
80.050581137150559

$$$$
N1(C=C[C@H](C=C1)[C@H]1C=CN(C=C1)CC#N)CC#N
                    3D

 32 33  0  0  0  0  0  0  0  0999 V2000
    3.1796    0.3213   -0.2755 N   0  0  0  0  0  0  0  0  0  0  0  0
    2.4976   -0.6931   -0.9407 C   0  0  0  0  0  0  0  0  0  0  0  0
    1.1595   -0.7762   -0.9894 C   0  0  0  0  0  0  0  0  0  0  0  0
    0.2734    0.2541   -0.2991 C   0  0  0  0  0  0  0  0  0  0  0  0
    1.1010    1.3592    0.3398 C   0  0  0  0  0  0  0  0  0  0  0  0
    2.4411    1.3332    0.3229 C   0  0  0  0  0  0  0  0  0  0  0  0
   -0.7293   -0.4155    0.6974 C   0  0  0  0  0  0  0  0  0  0  0  0
   -0.0482   -1.1055    1.8705 C   0  0  0  0  0  0  0  0  0  0  0  0
   -0.3803   -0.8254    3.1414 C   0  0  0  0  0  0  0  0  0  0  0  0
   -1.3563    0.0991    3.4970 N   0  0  0  0  0  0  0  0  0  0  0  0
   -2.0197    0.7791    2.4769 C   0  0  0  0  0  0  0  0  0  0  0  0
   -1.7804    0.5781    1.1723 C   0  0  0  0  0  0  0  0  0  0  0  0
   -1.6496    0.3987    4.9164 C   0  0  0  0  0  0  0  0  0  0  0  0
   -0.9237    1.5870    5.4098 C   0  0  0  0  0  0  0  0  0  0  0  0
   -0.3752    2.5245    5.8235 N   0  0  0  0  0  0  0  0  0  0  0  0
    4.6565    0.3276   -0.2299 C   0  0  0  0  0  0  0  0  0  0  0  0
    5.2579    0.6643   -1.5361 C   0  0  0  0  0  0  0  0  0  0  0  0
    5.7485    0.9082   -2.5623 N   0  0  0  0  0  0  0  0  0  0  0  0
    3.1226   -1.4242   -1.4496 H   0  0  0  0  0  0  0  0  0  0  0  0
    0.6843   -1.5768   -1.5453 H   0  0  0  0  0  0  0  0  0  0  0  0
   -0.3089    0.7276   -1.1031 H   0  0  0  0  0  0  0  0  0  0  0  0
    0.5718    2.1756    0.8235 H   0  0  0  0  0  0  0  0  0  0  0  0
    3.0157    2.1258    0.7930 H   0  0  0  0  0  0  0  0  0  0  0  0
   -1.2702   -1.1939    0.1431 H   0  0  0  0  0  0  0  0  0  0  0  0
    0.7211   -1.8367    1.6561 H   0  0  0  0  0  0  0  0  0  0  0  0
    0.1180   -1.3250    3.9699 H   0  0  0  0  0  0  0  0  0  0  0  0
   -2.7569    1.5069    2.8062 H   0  0  0  0  0  0  0  0  0  0  0  0
   -2.3367    1.1358    0.4258 H   0  0  0  0  0  0  0  0  0  0  0  0
   -2.7291    0.5524    5.0419 H   0  0  0  0  0  0  0  0  0  0  0  0
   -1.3916   -0.4642    5.5441 H   0  0  0  0  0  0  0  0  0  0  0  0
    5.0160   -0.6614    0.0853 H   0  0  0  0  0  0  0  0  0  0  0  0
    5.0137    1.0308    0.5340 H   0  0  0  0  0  0  0  0  0  0  0  0
  2  1  1  0  0  0  0
  3  2  2  0  0  0  0
  4  3  1  0  0  0  0
  5  4  1  0  0  0  0
  6  5  2  0  0  0  0
  6  1  1  0  0  0  0
  7  4  1  0  0  0  0
  8  7  1  0  0  0  0
  9  8  2  0  0  0  0
 10  9  1  0  0  0  0
 11 10  1  0  0  0  0
 12 11  2  0  0  0  0
 12  7  1  0  0  0  0
 13 10  1  0  0  0  0
 14 13  1  0  0  0  0
 15 14  3  0  0  0  0
 16  1  1  0  0  0  0
 17 16  1  0  0  0  0
 18 17  3  0  0  0  0
  2 19  1  0  0  0  0
  3 20  1  0  0  0  0
  4 21  1  0  0  0  0
  5 22  1  0  0  0  0
  6 23  1  0  0  0  0
  7 24  1  0  0  0  0
  8 25  1  0  0  0  0
  9 26  1  0  0  0  0
 11 27  1  0  0  0  0
 12 28  1  0  0  0  0
 13 29  1  0  0  0  0
 13 30  1  0  0  0  0
 16 31  1  0  0  0  0
 16 32  1  0  0  0  0
M  END
>  <energy>
80.280988012517568

$$$$
N1(C=C[C@H](C=C1)[C@H]1C=CN(C=C1)CC#N)CC#N
                    3D

 32 33  0  0  0  0  0  0  0  0999 V2000
    3.1911   -0.0457   -1.2979 N   0  0  0  0  0  0  0  0  0  0  0  0
    2.1270    0.8250   -1.4865 C   0  0  0  0  0  0  0  0  0  0  0  0
    1.3451    1.2633   -0.4896 C   0  0  0  0  0  0  0  0  0  0  0  0
    1.5361    0.8076    0.9597 C   0  0  0  0  0  0  0  0  0  0  0  0
    2.8193   -0.0187    1.0816 C   0  0  0  0  0  0  0  0  0  0  0  0
    3.5375   -0.3832    0.0063 C   0  0  0  0  0  0  0  0  0  0  0  0
    0.2802    0.0271    1.5059 C   0  0  0  0  0  0  0  0  0  0  0  0
    0.3872   -0.3406    2.9865 C   0  0  0  0  0  0  0  0  0  0  0  0
   -0.6137   -0.1082    3.8525 C   0  0  0  0  0  0  0  0  0  0  0  0
   -1.8048    0.5302    3.5102 N   0  0  0  0  0  0  0  0  0  0  0  0
   -1.9579    0.9463    2.1944 C   0  0  0  0  0  0  0  0  0  0  0  0
   -1.0406    0.7480    1.2371 C   0  0  0  0  0  0  0  0  0  0  0  0
   -2.9656    0.5849    4.4364 C   0  0  0  0  0  0  0  0  0  0  0  0
   -2.6027    0.8932    5.8313 C   0  0  0  0  0  0  0  0  0  0  0  0
   -2.2773    1.1196    6.9224 N   0  0  0  0  0  0  0  0  0  0  0  0
    3.9393   -0.5904   -2.4516 C   0  0  0  0  0  0  0  0  0  0  0  0
    5.1097    0.2218   -2.8252 C   0  0  0  0  0  0  0  0  0  0  0  0
    6.0426    0.8384   -3.1387 N   0  0  0  0  0  0  0  0  0  0  0  0
    1.9627    1.1500   -2.5113 H   0  0  0  0  0  0  0  0  0  0  0  0
    0.5526    1.9694   -0.7112 H   0  0  0  0  0  0  0  0  0  0  0  0
    1.6798    1.7142    1.5635 H   0  0  0  0  0  0  0  0  0  0  0  0
    3.1610   -0.3047    2.0707 H   0  0  0  0  0  0  0  0  0  0  0  0
    4.4493   -0.9650    0.1099 H   0  0  0  0  0  0  0  0  0  0  0  0
    0.2241   -0.9267    0.9612 H   0  0  0  0  0  0  0  0  0  0  0  0
    1.2761   -0.8519    3.3388 H   0  0  0  0  0  0  0  0  0  0  0  0
   -0.5246   -0.4247    4.8894 H   0  0  0  0  0  0  0  0  0  0  0  0
   -2.8972    1.4429    1.9668 H   0  0  0  0  0  0  0  0  0  0  0  0
   -1.2669    1.0695    0.2276 H   0  0  0  0  0  0  0  0  0  0  0  0
   -3.6764    1.3497    4.0970 H   0  0  0  0  0  0  0  0  0  0  0  0
   -3.4955   -0.3748    4.3890 H   0  0  0  0  0  0  0  0  0  0  0  0
    3.2682   -0.6775   -3.3157 H   0  0  0  0  0  0  0  0  0  0  0  0
    4.2650   -1.6130   -2.2250 H   0  0  0  0  0  0  0  0  0  0  0  0
  2  1  1  0  0  0  0
  3  2  2  0  0  0  0
  4  3  1  0  0  0  0
  5  4  1  0  0  0  0
  6  5  2  0  0  0  0
  6  1  1  0  0  0  0
  7  4  1  0  0  0  0
  8  7  1  0  0  0  0
  9  8  2  0  0  0  0
 10  9  1  0  0  0  0
 11 10  1  0  0  0  0
 12 11  2  0  0  0  0
 12  7  1  0  0  0  0
 13 10  1  0  0  0  0
 14 13  1  0  0  0  0
 15 14  3  0  0  0  0
 16  1  1  0  0  0  0
 17 16  1  0  0  0  0
 18 17  3  0  0  0  0
  2 19  1  0  0  0  0
  3 20  1  0  0  0  0
  4 21  1  0  0  0  0
  5 22  1  0  0  0  0
  6 23  1  0  0  0  0
  7 24  1  0  0  0  0
  8 25  1  0  0  0  0
  9 26  1  0  0  0  0
 11 27  1  0  0  0  0
 12 28  1  0  0  0  0
 13 29  1  0  0  0  0
 13 30  1  0  0  0  0
 16 31  1  0  0  0  0
 16 32  1  0  0  0  0
M  END
>  <energy>
81.720763592677059

$$$$
