c1ccc2c(c1)Nc1c(S2)cc(cc1)OC
                    3D

 27 29  0  0  0  0  0  0  0  0999 V2000
   -4.5181   -0.8791    0.5147 C   0  0  0  0  0  0  0  0  0  0  0  0
   -4.6203    0.2781   -0.2499 C   0  0  0  0  0  0  0  0  0  0  0  0
   -3.4639    0.9184   -0.6952 C   0  0  0  0  0  0  0  0  0  0  0  0
   -2.1951    0.4109   -0.3754 C   0  0  0  0  0  0  0  0  0  0  0  0
   -2.0854   -0.7464    0.4137 C   0  0  0  0  0  0  0  0  0  0  0  0
   -3.2596   -1.3905    0.8379 C   0  0  0  0  0  0  0  0  0  0  0  0
   -0.8427   -1.3251    0.7278 N   0  0  0  0  0  0  0  0  0  0  0  0
    0.4262   -0.7945    0.4389 C   0  0  0  0  0  0  0  0  0  0  0  0
    0.5991    0.3577   -0.3457 C   0  0  0  0  0  0  0  0  0  0  0  0
   -0.7756    1.2918   -1.0030 S   0  0  0  0  0  0  0  0  0  0  0  0
    1.8932    0.8245   -0.6398 C   0  0  0  0  0  0  0  0  0  0  0  0
    3.0177    0.1466   -0.1704 C   0  0  0  0  0  0  0  0  0  0  0  0
    2.8453   -1.0097    0.5884 C   0  0  0  0  0  0  0  0  0  0  0  0
    1.5642   -1.4807    0.8840 C   0  0  0  0  0  0  0  0  0  0  0  0
    4.3211    0.4996   -0.3855 O   0  0  0  0  0  0  0  0  0  0  0  0
    4.5517    1.6851   -1.1370 C   0  0  0  0  0  0  0  0  0  0  0  0
   -5.4161   -1.3883    0.8550 H   0  0  0  0  0  0  0  0  0  0  0  0
   -5.5970    0.6798   -0.5066 H   0  0  0  0  0  0  0  0  0  0  0  0
   -3.5586    1.8174   -1.3003 H   0  0  0  0  0  0  0  0  0  0  0  0
   -3.2018   -2.3033    1.4253 H   0  0  0  0  0  0  0  0  0  0  0  0
   -0.8638   -2.0264    1.4564 H   0  0  0  0  0  0  0  0  0  0  0  0
    1.9944    1.7210   -1.2433 H   0  0  0  0  0  0  0  0  0  0  0  0
    3.7156   -1.5522    0.9498 H   0  0  0  0  0  0  0  0  0  0  0  0
    1.4648   -2.3925    1.4667 H   0  0  0  0  0  0  0  0  0  0  0  0
    4.1609    1.5887   -2.1552 H   0  0  0  0  0  0  0  0  0  0  0  0
    5.6339    1.8306   -1.2087 H   0  0  0  0  0  0  0  0  0  0  0  0
    4.1310    2.5607   -0.6318 H   0  0  0  0  0  0  0  0  0  0  0  0
  2  1  2  0  0  0  0
  3  2  1  0  0  0  0
  4  3  2  0  0  0  0
  5  4  1  0  0  0  0
  6  5  2  0  0  0  0
  6  1  1  0  0  0  0
  7  5  1  0  0  0  0
  8  7  1  0  0  0  0
  9  8  2  0  0  0  0
 10  9  1  0  0  0  0
 10  4  1  0  0  0  0
 11  9  1  0  0  0  0
 12 11  2  0  0  0  0
 13 12  1  0  0  0  0
 14 13  2  0  0  0  0
 14  8  1  0  0  0  0
 15 12  1  0  0  0  0
 16 15  1  0  0  0  0
  1 17  1  0  0  0  0
  2 18  1  0  0  0  0
  3 19  1  0  0  0  0
  6 20  1  0  0  0  0
  7 21  1  0  0  0  0
 11 22  1  0  0  0  0
 13 23  1  0  0  0  0
 14 24  1  0  0  0  0
 16 25  1  0  0  0  0
 16 26  1  0  0  0  0
 16 27  1  0  0  0  0
M  END
>  <energy>
51.646359207501817

$$$$
