c1ccc2n(c1)cc(n1c2cccc1)C
                    3D

 27 29  0  0  0  0  0  0  0  0999 V2000
   -0.9169    3.6536   -0.1766 C   0  0  0  0  0  0  0  0  0  0  0  0
   -2.1370    2.8933   -0.0457 C   0  0  0  0  0  0  0  0  0  0  0  0
   -2.1009    1.5512    0.0378 C   0  0  0  0  0  0  0  0  0  0  0  0
   -0.8279    0.8061    0.0003 C   0  0  0  0  0  0  0  0  0  0  0  0
    0.3534    1.6042   -0.1297 N   0  0  0  0  0  0  0  0  0  0  0  0
    0.2486    2.9921   -0.2120 C   0  0  0  0  0  0  0  0  0  0  0  0
    1.5819    0.9531   -0.1710 C   0  0  0  0  0  0  0  0  0  0  0  0
    1.7165   -0.3870   -0.0925 C   0  0  0  0  0  0  0  0  0  0  0  0
    0.5653   -1.2038    0.0408 N   0  0  0  0  0  0  0  0  0  0  0  0
   -0.7265   -0.5584    0.0823 C   0  0  0  0  0  0  0  0  0  0  0  0
   -1.8937   -1.4500    0.2157 C   0  0  0  0  0  0  0  0  0  0  0  0
   -1.7624   -2.7846    0.3017 C   0  0  0  0  0  0  0  0  0  0  0  0
   -0.4551   -3.3899    0.2643 C   0  0  0  0  0  0  0  0  0  0  0  0
    0.6195   -2.5981    0.1377 C   0  0  0  0  0  0  0  0  0  0  0  0
    3.0935   -0.9925   -0.1496 C   0  0  0  0  0  0  0  0  0  0  0  0
   -0.9653    4.7336   -0.2427 H   0  0  0  0  0  0  0  0  0  0  0  0
   -3.0778    3.4325   -0.0165 H   0  0  0  0  0  0  0  0  0  0  0  0
   -3.0385    1.0213    0.1351 H   0  0  0  0  0  0  0  0  0  0  0  0
    1.1893    3.5239   -0.3099 H   0  0  0  0  0  0  0  0  0  0  0  0
    2.4401    1.6085   -0.2726 H   0  0  0  0  0  0  0  0  0  0  0  0
   -2.8923   -1.0361    0.2462 H   0  0  0  0  0  0  0  0  0  0  0  0
   -2.6284   -3.4302    0.3991 H   0  0  0  0  0  0  0  0  0  0  0  0
   -0.3659   -4.4670    0.3378 H   0  0  0  0  0  0  0  0  0  0  0  0
    1.6080   -3.0397    0.1077 H   0  0  0  0  0  0  0  0  0  0  0  0
    3.8736   -0.2309   -0.2615 H   0  0  0  0  0  0  0  0  0  0  0  0
    3.3121   -1.5439    0.7706 H   0  0  0  0  0  0  0  0  0  0  0  0
    3.1825   -1.6707   -1.0048 H   0  0  0  0  0  0  0  0  0  0  0  0
  2  1  1  0  0  0  0
  3  2  2  0  0  0  0
  4  3  1  0  0  0  0
  5  4  1  0  0  0  0
  6  5  1  0  0  0  0
  6  1  2  0  0  0  0
  7  5  1  0  0  0  0
  8  7  2  0  0  0  0
  9  8  1  0  0  0  0
 10  9  1  0  0  0  0
 10  4  2  0  0  0  0
 11 10  1  0  0  0  0
 12 11  2  0  0  0  0
 13 12  1  0  0  0  0
 14 13  2  0  0  0  0
 14  9  1  0  0  0  0
 15  8  1  0  0  0  0
  1 16  1  0  0  0  0
  2 17  1  0  0  0  0
  3 18  1  0  0  0  0
  6 19  1  0  0  0  0
  7 20  1  0  0  0  0
 11 21  1  0  0  0  0
 12 22  1  0  0  0  0
 13 23  1  0  0  0  0
 14 24  1  0  0  0  0
 15 25  1  0  0  0  0
 15 26  1  0  0  0  0
 15 27  1  0  0  0  0
M  END
>  <energy>
63.204579317966939

$$$$
