C1(=C(C(=O)c2c(C1=O)c(n1c2CCC1)C(=O)OCC)C)OC
                    3D

 39 41  0  0  0  0  0  0  0  0999 V2000
    2.3905    1.8265    0.5322 C   0  0  0  0  0  0  0  0  0  0  0  0
    3.2223    0.8776    0.0386 C   0  0  0  0  0  0  0  0  0  0  0  0
    2.7505   -0.3778   -0.6378 C   0  0  0  0  0  0  0  0  0  0  0  0
    3.5183   -1.2298   -1.0657 O   0  0  0  0  0  0  0  0  0  0  0  0
    1.3154   -0.4595   -0.7379 C   0  0  0  0  0  0  0  0  0  0  0  0
    0.4145    0.5300   -0.2367 C   0  0  0  0  0  0  0  0  0  0  0  0
    0.8729    1.6948    0.4973 C   0  0  0  0  0  0  0  0  0  0  0  0
    0.1260    2.4734    1.0756 O   0  0  0  0  0  0  0  0  0  0  0  0
   -0.8946    0.1427   -0.5522 C   0  0  0  0  0  0  0  0  0  0  0  0
   -0.7671   -1.0826   -1.1234 N   0  0  0  0  0  0  0  0  0  0  0  0
    0.5380   -1.4397   -1.2916 C   0  0  0  0  0  0  0  0  0  0  0  0
    0.6507   -2.7358   -1.9947 C   0  0  0  0  0  0  0  0  0  0  0  0
   -0.7713   -2.8860   -2.5917 C   0  0  0  0  0  0  0  0  0  0  0  0
   -1.6960   -2.0517   -1.6881 C   0  0  0  0  0  0  0  0  0  0  0  0
   -2.1632    0.7970   -0.3484 C   0  0  0  0  0  0  0  0  0  0  0  0
   -3.2062    0.2232   -0.0658 O   0  0  0  0  0  0  0  0  0  0  0  0
   -2.0485    2.1242   -0.6207 O   0  0  0  0  0  0  0  0  0  0  0  0
   -3.2557    2.8726   -0.4476 C   0  0  0  0  0  0  0  0  0  0  0  0
   -3.0436    4.2630   -1.0152 C   0  0  0  0  0  0  0  0  0  0  0  0
    4.7226    0.9656    0.1221 C   0  0  0  0  0  0  0  0  0  0  0  0
    2.9627    2.9276    1.1717 O   0  0  0  0  0  0  0  0  0  0  0  0
    2.3720    4.1861    0.8536 C   0  0  0  0  0  0  0  0  0  0  0  0
    0.8602   -3.5448   -1.2874 H   0  0  0  0  0  0  0  0  0  0  0  0
    1.4163   -2.7310   -2.7754 H   0  0  0  0  0  0  0  0  0  0  0  0
   -1.0881   -3.9295   -2.6733 H   0  0  0  0  0  0  0  0  0  0  0  0
   -0.7804   -2.4595   -3.6050 H   0  0  0  0  0  0  0  0  0  0  0  0
   -2.4851   -1.5373   -2.2414 H   0  0  0  0  0  0  0  0  0  0  0  0
   -2.1045   -2.6360   -0.8583 H   0  0  0  0  0  0  0  0  0  0  0  0
   -3.4834    2.9424    0.6217 H   0  0  0  0  0  0  0  0  0  0  0  0
   -4.0877    2.3874   -0.9710 H   0  0  0  0  0  0  0  0  0  0  0  0
   -2.1743    4.7439   -0.5527 H   0  0  0  0  0  0  0  0  0  0  0  0
   -3.9262    4.8887   -0.8510 H   0  0  0  0  0  0  0  0  0  0  0  0
   -2.8467    4.2141   -2.0916 H   0  0  0  0  0  0  0  0  0  0  0  0
    5.1224    0.1073    0.6729 H   0  0  0  0  0  0  0  0  0  0  0  0
    5.0750    1.8679    0.6300 H   0  0  0  0  0  0  0  0  0  0  0  0
    5.1599    0.9657   -0.8829 H   0  0  0  0  0  0  0  0  0  0  0  0
    3.1263    4.9593    1.0288 H   0  0  0  0  0  0  0  0  0  0  0  0
    2.0663    4.2450   -0.1972 H   0  0  0  0  0  0  0  0  0  0  0  0
    1.5342    4.3964    1.5236 H   0  0  0  0  0  0  0  0  0  0  0  0
  2  1  2  0  0  0  0
  3  2  1  0  0  0  0
  4  3  2  0  0  0  0
  5  3  1  0  0  0  0
  6  5  1  0  0  0  0
  7  6  1  0  0  0  0
  7  1  1  0  0  0  0
  8  7  2  0  0  0  0
  9  6  2  0  0  0  0
 10  9  1  0  0  0  0
 11 10  1  0  0  0  0
 11  5  2  0  0  0  0
 12 11  1  0  0  0  0
 13 12  1  0  0  0  0
 14 13  1  0  0  0  0
 14 10  1  0  0  0  0
 15  9  1  0  0  0  0
 16 15  2  0  0  0  0
 17 15  1  0  0  0  0
 18 17  1  0  0  0  0
 19 18  1  0  0  0  0
 20  2  1  0  0  0  0
 21  1  1  0  0  0  0
 22 21  1  0  0  0  0
 12 23  1  0  0  0  0
 12 24  1  0  0  0  0
 13 25  1  0  0  0  0
 13 26  1  0  0  0  0
 14 27  1  0  0  0  0
 14 28  1  0  0  0  0
 18 29  1  0  0  0  0
 18 30  1  0  0  0  0
 19 31  1  0  0  0  0
 19 32  1  0  0  0  0
 19 33  1  0  0  0  0
 20 34  1  0  0  0  0
 20 35  1  0  0  0  0
 20 36  1  0  0  0  0
 22 37  1  0  0  0  0
 22 38  1  0  0  0  0
 22 39  1  0  0  0  0
M  END
>  <energy>
60.299040376282505

$$$$
C1(=C(C(=O)c2c(C1=O)c(n1c2CCC1)C(=O)OCC)C)OC
                    3D

 39 41  0  0  0  0  0  0  0  0999 V2000
    2.7411    1.7258    0.6168 C   0  0  0  0  0  0  0  0  0  0  0  0
    3.3939    0.5939    0.2637 C   0  0  0  0  0  0  0  0  0  0  0  0
    2.7224   -0.5834   -0.3792 C   0  0  0  0  0  0  0  0  0  0  0  0
    3.3208   -1.6095   -0.6733 O   0  0  0  0  0  0  0  0  0  0  0  0
    1.3207   -0.3655   -0.6313 C   0  0  0  0  0  0  0  0  0  0  0  0
    0.6083    0.8185   -0.2726 C   0  0  0  0  0  0  0  0  0  0  0  0
    1.2371    1.9015    0.4583 C   0  0  0  0  0  0  0  0  0  0  0  0
    0.6290    2.8420    0.9500 O   0  0  0  0  0  0  0  0  0  0  0  0
   -0.7166    0.7011   -0.7175 C   0  0  0  0  0  0  0  0  0  0  0  0
   -0.7894   -0.5479   -1.2581 N   0  0  0  0  0  0  0  0  0  0  0  0
    0.4110   -1.1920   -1.2292 C   0  0  0  0  0  0  0  0  0  0  0  0
    0.3215   -2.5263   -1.8555 C   0  0  0  0  0  0  0  0  0  0  0  0
   -1.0032   -2.4105   -2.6451 C   0  0  0  0  0  0  0  0  0  0  0  0
   -1.8229   -1.3197   -1.9335 C   0  0  0  0  0  0  0  0  0  0  0  0
   -1.7929    1.6649   -0.6716 C   0  0  0  0  0  0  0  0  0  0  0  0
   -1.6729    2.8807   -0.7088 O   0  0  0  0  0  0  0  0  0  0  0  0
   -2.9894    1.0111   -0.6149 O   0  0  0  0  0  0  0  0  0  0  0  0
   -4.1296    1.8734   -0.5456 C   0  0  0  0  0  0  0  0  0  0  0  0
   -5.3747    1.0115   -0.6259 C   0  0  0  0  0  0  0  0  0  0  0  0
    4.8703    0.3912    0.4701 C   0  0  0  0  0  0  0  0  0  0  0  0
    3.4705    2.7472    1.2289 O   0  0  0  0  0  0  0  0  0  0  0  0
    3.2556    4.0335    0.6481 C   0  0  0  0  0  0  0  0  0  0  0  0
    0.2478   -3.3044   -1.0881 H   0  0  0  0  0  0  0  0  0  0  0  0
    1.1642   -2.7470   -2.5157 H   0  0  0  0  0  0  0  0  0  0  0  0
   -1.5386   -3.3625   -2.7116 H   0  0  0  0  0  0  0  0  0  0  0  0
   -0.7842   -2.0854   -3.6707 H   0  0  0  0  0  0  0  0  0  0  0  0
   -2.3656   -0.6791   -2.6322 H   0  0  0  0  0  0  0  0  0  0  0  0
   -2.4831   -1.7315   -1.1647 H   0  0  0  0  0  0  0  0  0  0  0  0
   -4.1198    2.5819   -1.3812 H   0  0  0  0  0  0  0  0  0  0  0  0
   -4.1153    2.4191    0.4038 H   0  0  0  0  0  0  0  0  0  0  0  0
   -5.3950    0.4517   -1.5670 H   0  0  0  0  0  0  0  0  0  0  0  0
   -6.2779    1.6240   -0.5597 H   0  0  0  0  0  0  0  0  0  0  0  0
   -5.3879    0.2736    0.1829 H   0  0  0  0  0  0  0  0  0  0  0  0
    5.0482   -0.4547    1.1431 H   0  0  0  0  0  0  0  0  0  0  0  0
    5.3678    1.2629    0.9051 H   0  0  0  0  0  0  0  0  0  0  0  0
    5.3629    0.1819   -0.4860 H   0  0  0  0  0  0  0  0  0  0  0  0
    4.1174    4.6589    0.9010 H   0  0  0  0  0  0  0  0  0  0  0  0
    3.1856    3.9801   -0.4437 H   0  0  0  0  0  0  0  0  0  0  0  0
    2.3698    4.5127    1.0724 H   0  0  0  0  0  0  0  0  0  0  0  0
  2  1  2  0  0  0  0
  3  2  1  0  0  0  0
  4  3  2  0  0  0  0
  5  3  1  0  0  0  0
  6  5  1  0  0  0  0
  7  6  1  0  0  0  0
  7  1  1  0  0  0  0
  8  7  2  0  0  0  0
  9  6  2  0  0  0  0
 10  9  1  0  0  0  0
 11 10  1  0  0  0  0
 11  5  2  0  0  0  0
 12 11  1  0  0  0  0
 13 12  1  0  0  0  0
 14 13  1  0  0  0  0
 14 10  1  0  0  0  0
 15  9  1  0  0  0  0
 16 15  2  0  0  0  0
 17 15  1  0  0  0  0
 18 17  1  0  0  0  0
 19 18  1  0  0  0  0
 20  2  1  0  0  0  0
 21  1  1  0  0  0  0
 22 21  1  0  0  0  0
 12 23  1  0  0  0  0
 12 24  1  0  0  0  0
 13 25  1  0  0  0  0
 13 26  1  0  0  0  0
 14 27  1  0  0  0  0
 14 28  1  0  0  0  0
 18 29  1  0  0  0  0
 18 30  1  0  0  0  0
 19 31  1  0  0  0  0
 19 32  1  0  0  0  0
 19 33  1  0  0  0  0
 20 34  1  0  0  0  0
 20 35  1  0  0  0  0
 20 36  1  0  0  0  0
 22 37  1  0  0  0  0
 22 38  1  0  0  0  0
 22 39  1  0  0  0  0
M  END
>  <energy>
62.199501320432894

$$$$
C1(=C(C(=O)c2c(C1=O)c(n1c2CCC1)C(=O)OCC)C)OC
                    3D

 39 41  0  0  0  0  0  0  0  0999 V2000
    2.5233    1.9463    0.2078 C   0  0  0  0  0  0  0  0  0  0  0  0
    3.2675    0.8217    0.0726 C   0  0  0  0  0  0  0  0  0  0  0  0
    2.7098   -0.5050   -0.3634 C   0  0  0  0  0  0  0  0  0  0  0  0
    3.3904   -1.5215   -0.4266 O   0  0  0  0  0  0  0  0  0  0  0  0
    1.3074   -0.4485   -0.6877 C   0  0  0  0  0  0  0  0  0  0  0  0
    0.5146    0.7313   -0.5910 C   0  0  0  0  0  0  0  0  0  0  0  0
    1.0329    1.9927   -0.1072 C   0  0  0  0  0  0  0  0  0  0  0  0
    0.3317    2.9814    0.0637 O   0  0  0  0  0  0  0  0  0  0  0  0
   -0.7886    0.4307   -0.9878 C   0  0  0  0  0  0  0  0  0  0  0  0
   -0.7785   -0.8937   -1.2771 N   0  0  0  0  0  0  0  0  0  0  0  0
    0.4574   -1.4430   -1.0987 C   0  0  0  0  0  0  0  0  0  0  0  0
    0.4424   -2.8910   -1.3945 C   0  0  0  0  0  0  0  0  0  0  0  0
   -0.8791   -3.0334   -2.1876 C   0  0  0  0  0  0  0  0  0  0  0  0
   -1.7658   -1.8552   -1.7407 C   0  0  0  0  0  0  0  0  0  0  0  0
   -1.9272    1.3031   -1.0720 C   0  0  0  0  0  0  0  0  0  0  0  0
   -2.0857    2.1849   -1.9010 O   0  0  0  0  0  0  0  0  0  0  0  0
   -2.7877    0.9896   -0.0646 O   0  0  0  0  0  0  0  0  0  0  0  0
   -3.8908    1.8920    0.1011 C   0  0  0  0  0  0  0  0  0  0  0  0
   -3.4304    3.1775    0.7688 C   0  0  0  0  0  0  0  0  0  0  0  0
    4.7446    0.7760    0.3569 C   0  0  0  0  0  0  0  0  0  0  0  0
    3.1702    3.1103    0.6268 O   0  0  0  0  0  0  0  0  0  0  0  0
    2.4522    3.8950    1.5760 C   0  0  0  0  0  0  0  0  0  0  0  0
    0.3907   -3.4616   -0.4616 H   0  0  0  0  0  0  0  0  0  0  0  0
    1.3034   -3.2228   -1.9794 H   0  0  0  0  0  0  0  0  0  0  0  0
   -1.3574   -4.0054   -2.0337 H   0  0  0  0  0  0  0  0  0  0  0  0
   -0.6683   -2.9371   -3.2611 H   0  0  0  0  0  0  0  0  0  0  0  0
   -2.3479   -1.4235   -2.5580 H   0  0  0  0  0  0  0  0  0  0  0  0
   -2.3977   -2.1177   -0.8884 H   0  0  0  0  0  0  0  0  0  0  0  0
   -4.6185    1.3887    0.7473 H   0  0  0  0  0  0  0  0  0  0  0  0
   -4.3852    2.0850   -0.8577 H   0  0  0  0  0  0  0  0  0  0  0  0
   -2.7137    3.7147    0.1390 H   0  0  0  0  0  0  0  0  0  0  0  0
   -2.9206    2.9554    1.7125 H   0  0  0  0  0  0  0  0  0  0  0  0
   -4.2764    3.8409    0.9671 H   0  0  0  0  0  0  0  0  0  0  0  0
    5.2913    0.4059   -0.5179 H   0  0  0  0  0  0  0  0  0  0  0  0
    4.9495    0.1092    1.2017 H   0  0  0  0  0  0  0  0  0  0  0  0
    5.1679    1.7551    0.6031 H   0  0  0  0  0  0  0  0  0  0  0  0
    1.8342    4.6362    1.0608 H   0  0  0  0  0  0  0  0  0  0  0  0
    1.8489    3.2802    2.2543 H   0  0  0  0  0  0  0  0  0  0  0  0
    3.1828    4.4402    2.1808 H   0  0  0  0  0  0  0  0  0  0  0  0
  2  1  2  0  0  0  0
  3  2  1  0  0  0  0
  4  3  2  0  0  0  0
  5  3  1  0  0  0  0
  6  5  1  0  0  0  0
  7  6  1  0  0  0  0
  7  1  1  0  0  0  0
  8  7  2  0  0  0  0
  9  6  2  0  0  0  0
 10  9  1  0  0  0  0
 11 10  1  0  0  0  0
 11  5  2  0  0  0  0
 12 11  1  0  0  0  0
 13 12  1  0  0  0  0
 14 13  1  0  0  0  0
 14 10  1  0  0  0  0
 15  9  1  0  0  0  0
 16 15  2  0  0  0  0
 17 15  1  0  0  0  0
 18 17  1  0  0  0  0
 19 18  1  0  0  0  0
 20  2  1  0  0  0  0
 21  1  1  0  0  0  0
 22 21  1  0  0  0  0
 12 23  1  0  0  0  0
 12 24  1  0  0  0  0
 13 25  1  0  0  0  0
 13 26  1  0  0  0  0
 14 27  1  0  0  0  0
 14 28  1  0  0  0  0
 18 29  1  0  0  0  0
 18 30  1  0  0  0  0
 19 31  1  0  0  0  0
 19 32  1  0  0  0  0
 19 33  1  0  0  0  0
 20 34  1  0  0  0  0
 20 35  1  0  0  0  0
 20 36  1  0  0  0  0
 22 37  1  0  0  0  0
 22 38  1  0  0  0  0
 22 39  1  0  0  0  0
M  END
>  <energy>
65.27976113342342

$$$$
