c1n(c2c(cc1)c1c(cc2)n(ccc1)C)C
                    3D

 30 32  0  0  0  0  0  0  0  0999 V2000
    3.5919    0.4324    0.4592 C   0  0  0  0  0  0  0  0  0  0  0  0
    2.6353    1.2609   -0.1165 N   0  0  0  0  0  0  0  0  0  0  0  0
    1.2725    0.8633   -0.0834 C   0  0  0  0  0  0  0  0  0  0  0  0
    0.9339   -0.4777    0.5044 C   0  0  0  0  0  0  0  0  0  0  0  0
    1.9410   -1.2139    1.0280 C   0  0  0  0  0  0  0  0  0  0  0  0
    3.3098   -0.7471    1.0254 C   0  0  0  0  0  0  0  0  0  0  0  0
   -0.4848   -0.9456    0.4880 C   0  0  0  0  0  0  0  0  0  0  0  0
   -1.5292   -0.0701   -0.1415 C   0  0  0  0  0  0  0  0  0  0  0  0
   -1.1295    1.1402   -0.5855 C   0  0  0  0  0  0  0  0  0  0  0  0
    0.2445    1.6007   -0.5510 C   0  0  0  0  0  0  0  0  0  0  0  0
   -2.8545   -0.5654   -0.2412 N   0  0  0  0  0  0  0  0  0  0  0  0
   -3.1687   -1.7852    0.3521 C   0  0  0  0  0  0  0  0  0  0  0  0
   -2.2665   -2.5597    0.9673 C   0  0  0  0  0  0  0  0  0  0  0  0
   -0.8848   -2.1313    1.0072 C   0  0  0  0  0  0  0  0  0  0  0  0
   -3.8802    0.1570   -1.0018 C   0  0  0  0  0  0  0  0  0  0  0  0
    3.0657    2.4496   -0.8579 C   0  0  0  0  0  0  0  0  0  0  0  0
    4.6123    0.8003    0.4246 H   0  0  0  0  0  0  0  0  0  0  0  0
    1.7929   -2.1895    1.4705 H   0  0  0  0  0  0  0  0  0  0  0  0
    4.0802   -1.3688    1.4678 H   0  0  0  0  0  0  0  0  0  0  0  0
   -1.8334    1.8323   -1.0320 H   0  0  0  0  0  0  0  0  0  0  0  0
    0.4067    2.5893   -0.9644 H   0  0  0  0  0  0  0  0  0  0  0  0
   -4.2119   -2.0848    0.2911 H   0  0  0  0  0  0  0  0  0  0  0  0
   -2.5404   -3.5021    1.4254 H   0  0  0  0  0  0  0  0  0  0  0  0
   -0.2068   -2.8298    1.4757 H   0  0  0  0  0  0  0  0  0  0  0  0
   -4.1465    1.0907   -0.4919 H   0  0  0  0  0  0  0  0  0  0  0  0
   -3.5071    0.3892   -2.0066 H   0  0  0  0  0  0  0  0  0  0  0  0
   -4.7982   -0.4320   -1.1301 H   0  0  0  0  0  0  0  0  0  0  0  0
    4.1539    2.5869   -0.8238 H   0  0  0  0  0  0  0  0  0  0  0  0
    2.6089    3.3536   -0.4413 H   0  0  0  0  0  0  0  0  0  0  0  0
    2.7851    2.3603   -1.9139 H   0  0  0  0  0  0  0  0  0  0  0  0
  2  1  1  0  0  0  0
  3  2  1  0  0  0  0
  4  3  1  0  0  0  0
  5  4  2  0  0  0  0
  6  5  1  0  0  0  0
  6  1  2  0  0  0  0
  7  4  1  0  0  0  0
  8  7  1  0  0  0  0
  9  8  2  0  0  0  0
 10  9  1  0  0  0  0
 10  3  2  0  0  0  0
 11  8  1  0  0  0  0
 12 11  1  0  0  0  0
 13 12  2  0  0  0  0
 14 13  1  0  0  0  0
 14  7  2  0  0  0  0
 15 11  1  0  0  0  0
 16  2  1  0  0  0  0
  1 17  1  0  0  0  0
  5 18  1  0  0  0  0
  6 19  1  0  0  0  0
  9 20  1  0  0  0  0
 10 21  1  0  0  0  0
 12 22  1  0  0  0  0
 13 23  1  0  0  0  0
 14 24  1  0  0  0  0
 15 25  1  0  0  0  0
 15 26  1  0  0  0  0
 15 27  1  0  0  0  0
 16 28  1  0  0  0  0
 16 29  1  0  0  0  0
 16 30  1  0  0  0  0
M  END
>  <energy>
65.286049665354312

$$$$
