C1=CN2C(=CC1)C1=CC=C(CN1CCC2)OC
                    3D

 35 37  0  0  0  0  0  0  0  0999 V2000
   -3.8572    1.7439   -0.0996 C   0  0  0  0  0  0  0  0  0  0  0  0
   -3.0941    1.3745    0.9377 C   0  0  0  0  0  0  0  0  0  0  0  0
   -1.8030    0.8792    0.8027 N   0  0  0  0  0  0  0  0  0  0  0  0
   -1.2427    0.7328   -0.4897 C   0  0  0  0  0  0  0  0  0  0  0  0
   -1.9525    1.0726   -1.5887 C   0  0  0  0  0  0  0  0  0  0  0  0
   -3.3454    1.6339   -1.5065 C   0  0  0  0  0  0  0  0  0  0  0  0
    0.1067    0.1358   -0.6353 C   0  0  0  0  0  0  0  0  0  0  0  0
    1.0532    0.7691   -1.3571 C   0  0  0  0  0  0  0  0  0  0  0  0
    2.3835    0.2258   -1.4781 C   0  0  0  0  0  0  0  0  0  0  0  0
    2.6894   -0.9584   -0.9288 C   0  0  0  0  0  0  0  0  0  0  0  0
    1.6887   -1.7583   -0.1175 C   0  0  0  0  0  0  0  0  0  0  0  0
    0.3994   -1.0662    0.0376 N   0  0  0  0  0  0  0  0  0  0  0  0
   -0.6103   -1.7634    0.8366 C   0  0  0  0  0  0  0  0  0  0  0  0
   -0.9152   -1.0183    2.1352 C   0  0  0  0  0  0  0  0  0  0  0  0
   -1.0179    0.4992    1.9886 C   0  0  0  0  0  0  0  0  0  0  0  0
    3.9884   -1.4380   -1.0167 O   0  0  0  0  0  0  0  0  0  0  0  0
    4.0514   -2.6851   -1.7044 C   0  0  0  0  0  0  0  0  0  0  0  0
   -4.8582    2.1269    0.0600 H   0  0  0  0  0  0  0  0  0  0  0  0
   -3.4578    1.4508    1.9580 H   0  0  0  0  0  0  0  0  0  0  0  0
   -1.5423    0.9269   -2.5823 H   0  0  0  0  0  0  0  0  0  0  0  0
   -3.3583    2.6260   -1.9713 H   0  0  0  0  0  0  0  0  0  0  0  0
   -4.0212    0.9889   -2.0796 H   0  0  0  0  0  0  0  0  0  0  0  0
    0.8553    1.7163   -1.8477 H   0  0  0  0  0  0  0  0  0  0  0  0
    3.1264    0.8000   -2.0192 H   0  0  0  0  0  0  0  0  0  0  0  0
    1.5090   -2.7211   -0.6090 H   0  0  0  0  0  0  0  0  0  0  0  0
    2.1134   -1.9535    0.8746 H   0  0  0  0  0  0  0  0  0  0  0  0
   -0.2777   -2.7795    1.0847 H   0  0  0  0  0  0  0  0  0  0  0  0
   -1.5258   -1.8963    0.2456 H   0  0  0  0  0  0  0  0  0  0  0  0
   -0.1349   -1.2392    2.8740 H   0  0  0  0  0  0  0  0  0  0  0  0
   -1.8521   -1.4131    2.5476 H   0  0  0  0  0  0  0  0  0  0  0  0
   -1.4625    0.9140    2.9023 H   0  0  0  0  0  0  0  0  0  0  0  0
   -0.0169    0.9474    1.9345 H   0  0  0  0  0  0  0  0  0  0  0  0
    3.6523   -3.4927   -1.0824 H   0  0  0  0  0  0  0  0  0  0  0  0
    3.5202   -2.6390   -2.6615 H   0  0  0  0  0  0  0  0  0  0  0  0
    5.1034   -2.9051   -1.9081 H   0  0  0  0  0  0  0  0  0  0  0  0
  2  1  2  0  0  0  0
  3  2  1  0  0  0  0
  4  3  1  0  0  0  0
  5  4  2  0  0  0  0
  6  5  1  0  0  0  0
  6  1  1  0  0  0  0
  7  4  1  0  0  0  0
  8  7  2  0  0  0  0
  9  8  1  0  0  0  0
 10  9  2  0  0  0  0
 11 10  1  0  0  0  0
 12 11  1  0  0  0  0
 12  7  1  0  0  0  0
 13 12  1  0  0  0  0
 14 13  1  0  0  0  0
 15 14  1  0  0  0  0
 15  3  1  0  0  0  0
 16 10  1  0  0  0  0
 17 16  1  0  0  0  0
  1 18  1  0  0  0  0
  2 19  1  0  0  0  0
  5 20  1  0  0  0  0
  6 21  1  0  0  0  0
  6 22  1  0  0  0  0
  8 23  1  0  0  0  0
  9 24  1  0  0  0  0
 11 25  1  0  0  0  0
 11 26  1  0  0  0  0
 13 27  1  0  0  0  0
 13 28  1  0  0  0  0
 14 29  1  0  0  0  0
 14 30  1  0  0  0  0
 15 31  1  0  0  0  0
 15 32  1  0  0  0  0
 17 33  1  0  0  0  0
 17 34  1  0  0  0  0
 17 35  1  0  0  0  0
M  END
>  <energy>
25.652451854483157

$$$$
