C1=CC(=O)c2c(C1=O)c(n1c2CCC1)c1ccccc1
                    3D

 33 36  0  0  0  0  0  0  0  0999 V2000
   -1.8483    3.3640    0.1662 C   0  0  0  0  0  0  0  0  0  0  0  0
   -3.0174    2.8366   -0.2372 C   0  0  0  0  0  0  0  0  0  0  0  0
   -3.2048    1.4011   -0.5861 C   0  0  0  0  0  0  0  0  0  0  0  0
   -4.2893    0.9589   -0.9398 O   0  0  0  0  0  0  0  0  0  0  0  0
   -1.9859    0.6380   -0.4567 C   0  0  0  0  0  0  0  0  0  0  0  0
   -0.7302    1.1892   -0.0248 C   0  0  0  0  0  0  0  0  0  0  0  0
   -0.5819    2.5903    0.3237 C   0  0  0  0  0  0  0  0  0  0  0  0
    0.4406    3.1378    0.7137 O   0  0  0  0  0  0  0  0  0  0  0  0
    0.2254    0.1691   -0.0215 C   0  0  0  0  0  0  0  0  0  0  0  0
   -0.4434   -0.9438   -0.4315 N   0  0  0  0  0  0  0  0  0  0  0  0
   -1.7594   -0.6909   -0.6873 C   0  0  0  0  0  0  0  0  0  0  0  0
   -2.4697   -1.9171   -1.1037 C   0  0  0  0  0  0  0  0  0  0  0  0
   -1.2920   -2.8684   -1.4241 C   0  0  0  0  0  0  0  0  0  0  0  0
   -0.0972   -2.3448   -0.6092 C   0  0  0  0  0  0  0  0  0  0  0  0
    1.6377    0.1678    0.3466 C   0  0  0  0  0  0  0  0  0  0  0  0
    2.6195   -0.1743   -0.5918 C   0  0  0  0  0  0  0  0  0  0  0  0
    3.9685   -0.1963   -0.2302 C   0  0  0  0  0  0  0  0  0  0  0  0
    4.3457    0.1282    1.0716 C   0  0  0  0  0  0  0  0  0  0  0  0
    3.3770    0.4808    2.0095 C   0  0  0  0  0  0  0  0  0  0  0  0
    2.0282    0.5021    1.6481 C   0  0  0  0  0  0  0  0  0  0  0  0
   -1.7636    4.4175    0.4081 H   0  0  0  0  0  0  0  0  0  0  0  0
   -3.9073    3.4481   -0.3334 H   0  0  0  0  0  0  0  0  0  0  0  0
   -3.0676   -2.3122   -0.2763 H   0  0  0  0  0  0  0  0  0  0  0  0
   -3.1118   -1.7665   -1.9753 H   0  0  0  0  0  0  0  0  0  0  0  0
   -1.5246   -3.9147   -1.2049 H   0  0  0  0  0  0  0  0  0  0  0  0
   -1.0559   -2.7999   -2.4948 H   0  0  0  0  0  0  0  0  0  0  0  0
    0.8480   -2.4359   -1.1476 H   0  0  0  0  0  0  0  0  0  0  0  0
   -0.0401   -2.7982    0.3846 H   0  0  0  0  0  0  0  0  0  0  0  0
    2.3405   -0.4135   -1.6150 H   0  0  0  0  0  0  0  0  0  0  0  0
    4.7247   -0.4582   -0.9659 H   0  0  0  0  0  0  0  0  0  0  0  0
    5.3954    0.1185    1.3529 H   0  0  0  0  0  0  0  0  0  0  0  0
    3.6693    0.7472    3.0209 H   0  0  0  0  0  0  0  0  0  0  0  0
    1.2841    0.7901    2.3869 H   0  0  0  0  0  0  0  0  0  0  0  0
  2  1  2  0  0  0  0
  3  2  1  0  0  0  0
  4  3  2  0  0  0  0
  5  3  1  0  0  0  0
  6  5  1  0  0  0  0
  7  6  1  0  0  0  0
  7  1  1  0  0  0  0
  8  7  2  0  0  0  0
  9  6  2  0  0  0  0
 10  9  1  0  0  0  0
 11 10  1  0  0  0  0
 11  5  2  0  0  0  0
 12 11  1  0  0  0  0
 13 12  1  0  0  0  0
 14 13  1  0  0  0  0
 14 10  1  0  0  0  0
 15  9  1  0  0  0  0
 16 15  2  0  0  0  0
 17 16  1  0  0  0  0
 18 17  2  0  0  0  0
 19 18  1  0  0  0  0
 20 19  2  0  0  0  0
 20 15  1  0  0  0  0
  1 21  1  0  0  0  0
  2 22  1  0  0  0  0
 12 23  1  0  0  0  0
 12 24  1  0  0  0  0
 13 25  1  0  0  0  0
 13 26  1  0  0  0  0
 14 27  1  0  0  0  0
 14 28  1  0  0  0  0
 16 29  1  0  0  0  0
 17 30  1  0  0  0  0
 18 31  1  0  0  0  0
 19 32  1  0  0  0  0
 20 33  1  0  0  0  0
M  END
>  <energy>
69.324347674389898

$$$$
