N(CC)CC
                    3D

 16 15  0  0  0  0  0  0  0  0999 V2000
    0.0398    0.3217    0.4428 N   0  0  0  0  0  0  0  0  0  0  0  0
   -1.1464   -0.4814    0.1510 C   0  0  0  0  0  0  0  0  0  0  0  0
   -1.4484   -1.5194    1.2234 C   0  0  0  0  0  0  0  0  0  0  0  0
    1.2876   -0.4083    0.2330 C   0  0  0  0  0  0  0  0  0  0  0  0
    2.4692    0.5122    0.5023 C   0  0  0  0  0  0  0  0  0  0  0  0
   -0.0031    0.6663    1.4012 H   0  0  0  0  0  0  0  0  0  0  0  0
   -2.0008    0.2023    0.0853 H   0  0  0  0  0  0  0  0  0  0  0  0
   -1.0616   -0.9613   -0.8311 H   0  0  0  0  0  0  0  0  0  0  0  0
   -2.3979   -2.0190    1.0043 H   0  0  0  0  0  0  0  0  0  0  0  0
   -0.6724   -2.2893    1.2718 H   0  0  0  0  0  0  0  0  0  0  0  0
   -1.5358   -1.0540    2.2109 H   0  0  0  0  0  0  0  0  0  0  0  0
    1.3572   -1.2733    0.9006 H   0  0  0  0  0  0  0  0  0  0  0  0
    1.3486   -0.7681   -0.8003 H   0  0  0  0  0  0  0  0  0  0  0  0
    3.4099   -0.0246    0.3422 H   0  0  0  0  0  0  0  0  0  0  0  0
    2.4569    1.3793   -0.1668 H   0  0  0  0  0  0  0  0  0  0  0  0
    2.4622    0.8754    1.5356 H   0  0  0  0  0  0  0  0  0  0  0  0
  2  1  1  0  0  0  0
  3  2  1  0  0  0  0
  4  1  1  0  0  0  0
  5  4  1  0  0  0  0
  1  6  1  0  0  0  0
  2  7  1  0  0  0  0
  2  8  1  0  0  0  0
  3  9  1  0  0  0  0
  3 10  1  0  0  0  0
  3 11  1  0  0  0  0
  4 12  1  0  0  0  0
  4 13  1  0  0  0  0
  5 14  1  0  0  0  0
  5 15  1  0  0  0  0
  5 16  1  0  0  0  0
M  END
>  <energy>
-6.3185287927078022

$$$$
