C1=CC(=O)c2c(C1=O)c(n(c2c1ccccc1)C)C
                    3D

 32 34  0  0  0  0  0  0  0  0999 V2000
    2.0007    3.3284   -1.0782 C   0  0  0  0  0  0  0  0  0  0  0  0
    0.6626    3.4250   -1.1468 C   0  0  0  0  0  0  0  0  0  0  0  0
   -0.2742    2.3308   -0.7667 C   0  0  0  0  0  0  0  0  0  0  0  0
   -1.4859    2.4970   -0.8216 O   0  0  0  0  0  0  0  0  0  0  0  0
    0.4107    1.1248   -0.3429 C   0  0  0  0  0  0  0  0  0  0  0  0
    1.8289    1.0215   -0.2731 C   0  0  0  0  0  0  0  0  0  0  0  0
    2.7216    2.1127   -0.6139 C   0  0  0  0  0  0  0  0  0  0  0  0
    3.9416    2.0890   -0.5388 O   0  0  0  0  0  0  0  0  0  0  0  0
    2.1394   -0.2581    0.1549 C   0  0  0  0  0  0  0  0  0  0  0  0
    0.9426   -0.9143    0.3774 N   0  0  0  0  0  0  0  0  0  0  0  0
   -0.1227   -0.0952    0.0405 C   0  0  0  0  0  0  0  0  0  0  0  0
   -1.5190   -0.5193    0.1012 C   0  0  0  0  0  0  0  0  0  0  0  0
   -2.0096   -1.4426   -0.8294 C   0  0  0  0  0  0  0  0  0  0  0  0
   -3.3413   -1.8547   -0.7762 C   0  0  0  0  0  0  0  0  0  0  0  0
   -4.1880   -1.3484    0.2093 C   0  0  0  0  0  0  0  0  0  0  0  0
   -3.7068   -0.4239    1.1372 C   0  0  0  0  0  0  0  0  0  0  0  0
   -2.3746   -0.0082    1.0824 C   0  0  0  0  0  0  0  0  0  0  0  0
    0.8262   -2.2626    0.9036 C   0  0  0  0  0  0  0  0  0  0  0  0
    3.4711   -0.8878    0.3876 C   0  0  0  0  0  0  0  0  0  0  0  0
    2.6401    4.1561   -1.3625 H   0  0  0  0  0  0  0  0  0  0  0  0
    0.1819    4.3337   -1.4890 H   0  0  0  0  0  0  0  0  0  0  0  0
   -1.3558   -1.8383   -1.6044 H   0  0  0  0  0  0  0  0  0  0  0  0
   -3.7198   -2.5630   -1.5091 H   0  0  0  0  0  0  0  0  0  0  0  0
   -5.2262   -1.6668    0.2503 H   0  0  0  0  0  0  0  0  0  0  0  0
   -4.3688   -0.0177    1.8971 H   0  0  0  0  0  0  0  0  0  0  0  0
   -2.0103    0.7199    1.8022 H   0  0  0  0  0  0  0  0  0  0  0  0
    0.9875   -2.9619    0.0794 H   0  0  0  0  0  0  0  0  0  0  0  0
    1.5750   -2.4046    1.6868 H   0  0  0  0  0  0  0  0  0  0  0  0
   -0.1620   -2.4143    1.3435 H   0  0  0  0  0  0  0  0  0  0  0  0
    4.2287   -0.4706   -0.2842 H   0  0  0  0  0  0  0  0  0  0  0  0
    3.4398   -1.9661    0.2039 H   0  0  0  0  0  0  0  0  0  0  0  0
    3.7891   -0.7144    1.4211 H   0  0  0  0  0  0  0  0  0  0  0  0
  2  1  2  0  0  0  0
  3  2  1  0  0  0  0
  4  3  2  0  0  0  0
  5  3  1  0  0  0  0
  6  5  1  0  0  0  0
  7  6  1  0  0  0  0
  7  1  1  0  0  0  0
  8  7  2  0  0  0  0
  9  6  2  0  0  0  0
 10  9  1  0  0  0  0
 11 10  1  0  0  0  0
 11  5  2  0  0  0  0
 12 11  1  0  0  0  0
 13 12  2  0  0  0  0
 14 13  1  0  0  0  0
 15 14  2  0  0  0  0
 16 15  1  0  0  0  0
 17 16  2  0  0  0  0
 17 12  1  0  0  0  0
 18 10  1  0  0  0  0
 19  9  1  0  0  0  0
  1 20  1  0  0  0  0
  2 21  1  0  0  0  0
 13 22  1  0  0  0  0
 14 23  1  0  0  0  0
 15 24  1  0  0  0  0
 16 25  1  0  0  0  0
 17 26  1  0  0  0  0
 18 27  1  0  0  0  0
 18 28  1  0  0  0  0
 18 29  1  0  0  0  0
 19 30  1  0  0  0  0
 19 31  1  0  0  0  0
 19 32  1  0  0  0  0
M  END
>  <energy>
66.10501977136326

$$$$
