N1(C=C[C@H](C=C1)[C@@H]1C=CN(C(=C1)C)C)C
                    3D

 33 34  0  0  0  0  0  0  0  0999 V2000
    2.6970    1.0590   -0.3887 N   0  0  0  0  0  0  0  0  0  0  0  0
    3.0258   -0.2853   -0.2474 C   0  0  0  0  0  0  0  0  0  0  0  0
    2.1464   -1.2849   -0.4206 C   0  0  0  0  0  0  0  0  0  0  0  0
    0.6967   -1.0075   -0.7945 C   0  0  0  0  0  0  0  0  0  0  0  0
    0.4218    0.4870   -0.9204 C   0  0  0  0  0  0  0  0  0  0  0  0
    1.3884    1.3946   -0.7127 C   0  0  0  0  0  0  0  0  0  0  0  0
   -0.3532   -1.6945    0.1436 C   0  0  0  0  0  0  0  0  0  0  0  0
   -0.1301   -1.4153    1.6143 C   0  0  0  0  0  0  0  0  0  0  0  0
   -0.0241   -2.4129    2.5010 C   0  0  0  0  0  0  0  0  0  0  0  0
   -0.1089   -3.7647    2.1702 N   0  0  0  0  0  0  0  0  0  0  0  0
   -0.3253   -4.1288    0.8268 C   0  0  0  0  0  0  0  0  0  0  0  0
   -0.4426   -3.1887   -0.1383 C   0  0  0  0  0  0  0  0  0  0  0  0
   -0.4375   -5.5889    0.4578 C   0  0  0  0  0  0  0  0  0  0  0  0
   -0.0515   -4.7710    3.2380 C   0  0  0  0  0  0  0  0  0  0  0  0
    3.6782    2.1058   -0.0969 C   0  0  0  0  0  0  0  0  0  0  0  0
    4.0584   -0.4892    0.0157 H   0  0  0  0  0  0  0  0  0  0  0  0
    2.4578   -2.3161   -0.2914 H   0  0  0  0  0  0  0  0  0  0  0  0
    0.5604   -1.4209   -1.8044 H   0  0  0  0  0  0  0  0  0  0  0  0
   -0.5778    0.8053   -1.1896 H   0  0  0  0  0  0  0  0  0  0  0  0
    1.1920    2.4591   -0.7985 H   0  0  0  0  0  0  0  0  0  0  0  0
   -1.3433   -1.2863   -0.1035 H   0  0  0  0  0  0  0  0  0  0  0  0
   -0.0623   -0.3836    1.9417 H   0  0  0  0  0  0  0  0  0  0  0  0
    0.1425   -2.1995    3.5540 H   0  0  0  0  0  0  0  0  0  0  0  0
   -0.6182   -3.4774   -1.1699 H   0  0  0  0  0  0  0  0  0  0  0  0
   -0.7700   -5.7210   -0.5786 H   0  0  0  0  0  0  0  0  0  0  0  0
   -1.1673   -6.0996    1.0947 H   0  0  0  0  0  0  0  0  0  0  0  0
    0.5331   -6.0865    0.5642 H   0  0  0  0  0  0  0  0  0  0  0  0
    0.6735   -5.5518    2.9946 H   0  0  0  0  0  0  0  0  0  0  0  0
    0.2496   -4.3324    4.1968 H   0  0  0  0  0  0  0  0  0  0  0  0
   -1.0384   -5.2266    3.3775 H   0  0  0  0  0  0  0  0  0  0  0  0
    3.4782    2.5378    0.8899 H   0  0  0  0  0  0  0  0  0  0  0  0
    4.7025    1.7166   -0.0983 H   0  0  0  0  0  0  0  0  0  0  0  0
    3.6294    2.9089   -0.8428 H   0  0  0  0  0  0  0  0  0  0  0  0
  2  1  1  0  0  0  0
  3  2  2  0  0  0  0
  4  3  1  0  0  0  0
  5  4  1  0  0  0  0
  6  5  2  0  0  0  0
  6  1  1  0  0  0  0
  7  4  1  0  0  0  0
  8  7  1  0  0  0  0
  9  8  2  0  0  0  0
 10  9  1  0  0  0  0
 11 10  1  0  0  0  0
 12 11  2  0  0  0  0
 12  7  1  0  0  0  0
 13 11  1  0  0  0  0
 14 10  1  0  0  0  0
 15  1  1  0  0  0  0
  2 16  1  0  0  0  0
  3 17  1  0  0  0  0
  4 18  1  0  0  0  0
  5 19  1  0  0  0  0
  6 20  1  0  0  0  0
  7 21  1  0  0  0  0
  8 22  1  0  0  0  0
  9 23  1  0  0  0  0
 12 24  1  0  0  0  0
 13 25  1  0  0  0  0
 13 26  1  0  0  0  0
 13 27  1  0  0  0  0
 14 28  1  0  0  0  0
 14 29  1  0  0  0  0
 14 30  1  0  0  0  0
 15 31  1  0  0  0  0
 15 32  1  0  0  0  0
 15 33  1  0  0  0  0
M  END
>  <energy>
23.90619059025201

$$$$
