c1cc2n(cc1)cc1c(c2)ccc2c1cn1c(c2)cccc1
                    3D

 36 40  0  0  0  0  0  0  0  0999 V2000
   -5.6506    1.2176    0.0379 C   0  0  0  0  0  0  0  0  0  0  0  0
   -4.9852    0.3839    0.8575 C   0  0  0  0  0  0  0  0  0  0  0  0
   -3.5443    0.1746    0.7070 C   0  0  0  0  0  0  0  0  0  0  0  0
   -2.8798    0.8818   -0.3327 N   0  0  0  0  0  0  0  0  0  0  0  0
   -3.6257    1.7303   -1.1516 C   0  0  0  0  0  0  0  0  0  0  0  0
   -4.9472    1.9222   -1.0134 C   0  0  0  0  0  0  0  0  0  0  0  0
   -1.4994    0.7035   -0.4930 C   0  0  0  0  0  0  0  0  0  0  0  0
   -0.7300   -0.0993    0.2753 C   0  0  0  0  0  0  0  0  0  0  0  0
   -1.4415   -0.8278    1.3584 C   0  0  0  0  0  0  0  0  0  0  0  0
   -2.8816   -0.6599    1.5361 C   0  0  0  0  0  0  0  0  0  0  0  0
   -0.7278   -1.6353    2.1700 C   0  0  0  0  0  0  0  0  0  0  0  0
    0.7109   -1.8099    2.0302 C   0  0  0  0  0  0  0  0  0  0  0  0
    1.4300   -1.1847    1.0742 C   0  0  0  0  0  0  0  0  0  0  0  0
    0.7211   -0.2879    0.1244 C   0  0  0  0  0  0  0  0  0  0  0  0
    1.4938    0.2924   -0.8202 C   0  0  0  0  0  0  0  0  0  0  0  0
    2.8779    0.1122   -0.9432 N   0  0  0  0  0  0  0  0  0  0  0  0
    3.5422   -0.7337   -0.0127 C   0  0  0  0  0  0  0  0  0  0  0  0
    2.8739   -1.3744    0.9695 C   0  0  0  0  0  0  0  0  0  0  0  0
    4.9911   -0.8888   -0.1498 C   0  0  0  0  0  0  0  0  0  0  0  0
    5.6639   -0.2552   -1.1269 C   0  0  0  0  0  0  0  0  0  0  0  0
    4.9589    0.5930   -2.0653 C   0  0  0  0  0  0  0  0  0  0  0  0
    3.6302    0.7383   -1.9376 C   0  0  0  0  0  0  0  0  0  0  0  0
   -6.7165    1.3804    0.1448 H   0  0  0  0  0  0  0  0  0  0  0  0
   -5.5094   -0.1438    1.6464 H   0  0  0  0  0  0  0  0  0  0  0  0
   -3.0641    2.2409   -1.9268 H   0  0  0  0  0  0  0  0  0  0  0  0
   -5.4969    2.5889   -1.6663 H   0  0  0  0  0  0  0  0  0  0  0  0
   -1.0898    1.2865   -1.3086 H   0  0  0  0  0  0  0  0  0  0  0  0
   -3.3837   -1.2000    2.3299 H   0  0  0  0  0  0  0  0  0  0  0  0
   -1.2032   -2.1874    2.9754 H   0  0  0  0  0  0  0  0  0  0  0  0
    1.1855   -2.4740    2.7468 H   0  0  0  0  0  0  0  0  0  0  0  0
    1.0863    0.9607   -1.5686 H   0  0  0  0  0  0  0  0  0  0  0  0
    3.3763   -2.0190    1.6810 H   0  0  0  0  0  0  0  0  0  0  0  0
    5.5166   -1.5237    0.5549 H   0  0  0  0  0  0  0  0  0  0  0  0
    6.7370   -0.3625   -1.2331 H   0  0  0  0  0  0  0  0  0  0  0  0
    5.5135    1.0938   -2.8492 H   0  0  0  0  0  0  0  0  0  0  0  0
    3.0677    1.3660   -2.6207 H   0  0  0  0  0  0  0  0  0  0  0  0
  2  1  2  0  0  0  0
  3  2  1  0  0  0  0
  4  3  1  0  0  0  0
  5  4  1  0  0  0  0
  6  5  2  0  0  0  0
  6  1  1  0  0  0  0
  7  4  1  0  0  0  0
  8  7  2  0  0  0  0
  9  8  1  0  0  0  0
 10  9  1  0  0  0  0
 10  3  2  0  0  0  0
 11  9  2  0  0  0  0
 12 11  1  0  0  0  0
 13 12  2  0  0  0  0
 14 13  1  0  0  0  0
 14  8  1  0  0  0  0
 15 14  2  0  0  0  0
 16 15  1  0  0  0  0
 17 16  1  0  0  0  0
 18 17  2  0  0  0  0
 18 13  1  0  0  0  0
 19 17  1  0  0  0  0
 20 19  2  0  0  0  0
 21 20  1  0  0  0  0
 22 21  2  0  0  0  0
 22 16  1  0  0  0  0
  1 23  1  0  0  0  0
  2 24  1  0  0  0  0
  5 25  1  0  0  0  0
  6 26  1  0  0  0  0
  7 27  1  0  0  0  0
 10 28  1  0  0  0  0
 11 29  1  0  0  0  0
 12 30  1  0  0  0  0
 15 31  1  0  0  0  0
 18 32  1  0  0  0  0
 19 33  1  0  0  0  0
 20 34  1  0  0  0  0
 21 35  1  0  0  0  0
 22 36  1  0  0  0  0
M  END
>  <energy>
76.445560742548238

$$$$
