C1(=C(C(=O)c2c(C1=O)c1n(c2c2ccccc2)CCC1)C)C
                    3D

 39 42  0  0  0  0  0  0  0  0999 V2000
    2.7448    1.8606    0.3217 C   0  0  0  0  0  0  0  0  0  0  0  0
    1.5832    2.5526    0.1982 C   0  0  0  0  0  0  0  0  0  0  0  0
    0.2205    1.8911    0.1007 C   0  0  0  0  0  0  0  0  0  0  0  0
   -0.8073    2.5509    0.0129 O   0  0  0  0  0  0  0  0  0  0  0  0
    0.2751    0.4433    0.1178 C   0  0  0  0  0  0  0  0  0  0  0  0
    1.5068   -0.2677    0.2510 C   0  0  0  0  0  0  0  0  0  0  0  0
    2.8011    0.3527    0.3657 C   0  0  0  0  0  0  0  0  0  0  0  0
    3.8509   -0.2674    0.4785 O   0  0  0  0  0  0  0  0  0  0  0  0
    1.1873   -1.5970    0.2382 C   0  0  0  0  0  0  0  0  0  0  0  0
   -0.1630   -1.7031    0.0807 N   0  0  0  0  0  0  0  0  0  0  0  0
   -0.7690   -0.4860    0.0226 C   0  0  0  0  0  0  0  0  0  0  0  0
   -2.2108   -0.3168   -0.1420 C   0  0  0  0  0  0  0  0  0  0  0  0
   -3.1013   -0.7943    0.8287 C   0  0  0  0  0  0  0  0  0  0  0  0
   -4.4806   -0.6437    0.6616 C   0  0  0  0  0  0  0  0  0  0  0  0
   -4.9807   -0.0130   -0.4766 C   0  0  0  0  0  0  0  0  0  0  0  0
   -4.1027    0.4664   -1.4461 C   0  0  0  0  0  0  0  0  0  0  0  0
   -2.7235    0.3160   -1.2794 C   0  0  0  0  0  0  0  0  0  0  0  0
   -0.6055   -3.0844   -0.0218 C   0  0  0  0  0  0  0  0  0  0  0  0
    0.6023   -3.8463    0.5501 C   0  0  0  0  0  0  0  0  0  0  0  0
    1.8248   -2.9273    0.3157 C   0  0  0  0  0  0  0  0  0  0  0  0
    1.4924    4.0550    0.1198 C   0  0  0  0  0  0  0  0  0  0  0  0
    4.1163    2.4723    0.4475 C   0  0  0  0  0  0  0  0  0  0  0  0
   -2.7275   -1.2750    1.7295 H   0  0  0  0  0  0  0  0  0  0  0  0
   -5.1635   -1.0080    1.4243 H   0  0  0  0  0  0  0  0  0  0  0  0
   -6.0528    0.1152   -0.6019 H   0  0  0  0  0  0  0  0  0  0  0  0
   -4.4882    0.9692   -2.3289 H   0  0  0  0  0  0  0  0  0  0  0  0
   -2.0506    0.7065   -2.0387 H   0  0  0  0  0  0  0  0  0  0  0  0
   -0.7654   -3.2992   -1.0840 H   0  0  0  0  0  0  0  0  0  0  0  0
   -1.5163   -3.2386    0.5581 H   0  0  0  0  0  0  0  0  0  0  0  0
    0.7267   -4.8376    0.1065 H   0  0  0  0  0  0  0  0  0  0  0  0
    0.4600   -3.9838    1.6302 H   0  0  0  0  0  0  0  0  0  0  0  0
    2.5464   -3.0097    1.1332 H   0  0  0  0  0  0  0  0  0  0  0  0
    2.3167   -3.1729   -0.6302 H   0  0  0  0  0  0  0  0  0  0  0  0
    2.4444    4.5369   -0.1099 H   0  0  0  0  0  0  0  0  0  0  0  0
    1.1261    4.4615    1.0684 H   0  0  0  0  0  0  0  0  0  0  0  0
    0.8068    4.3659   -0.6762 H   0  0  0  0  0  0  0  0  0  0  0  0
    4.6977    2.2806   -0.4614 H   0  0  0  0  0  0  0  0  0  0  0  0
    4.1057    3.5506    0.6184 H   0  0  0  0  0  0  0  0  0  0  0  0
    4.6529    2.0375    1.2990 H   0  0  0  0  0  0  0  0  0  0  0  0
  2  1  2  0  0  0  0
  3  2  1  0  0  0  0
  4  3  2  0  0  0  0
  5  3  1  0  0  0  0
  6  5  1  0  0  0  0
  7  6  1  0  0  0  0
  7  1  1  0  0  0  0
  8  7  2  0  0  0  0
  9  6  2  0  0  0  0
 10  9  1  0  0  0  0
 11 10  1  0  0  0  0
 11  5  2  0  0  0  0
 12 11  1  0  0  0  0
 13 12  2  0  0  0  0
 14 13  1  0  0  0  0
 15 14  2  0  0  0  0
 16 15  1  0  0  0  0
 17 16  2  0  0  0  0
 17 12  1  0  0  0  0
 18 10  1  0  0  0  0
 19 18  1  0  0  0  0
 20 19  1  0  0  0  0
 20  9  1  0  0  0  0
 21  2  1  0  0  0  0
 22  1  1  0  0  0  0
 13 23  1  0  0  0  0
 14 24  1  0  0  0  0
 15 25  1  0  0  0  0
 16 26  1  0  0  0  0
 17 27  1  0  0  0  0
 18 28  1  0  0  0  0
 18 29  1  0  0  0  0
 19 30  1  0  0  0  0
 19 31  1  0  0  0  0
 20 32  1  0  0  0  0
 20 33  1  0  0  0  0
 21 34  1  0  0  0  0
 21 35  1  0  0  0  0
 21 36  1  0  0  0  0
 22 37  1  0  0  0  0
 22 38  1  0  0  0  0
 22 39  1  0  0  0  0
M  END
>  <energy>
75.148732683993302

$$$$
