C1=CN2C(=CC1)C1=CCC=CN1[C@H](C2)c1ccccc1
                    3D

 38 41  0  0  0  0  0  0  0  0999 V2000
   -0.0084    2.9810    2.6012 C   0  0  0  0  0  0  0  0  0  0  0  0
    0.6001    2.7556    1.4303 C   0  0  0  0  0  0  0  0  0  0  0  0
    0.8203    1.4853    0.9155 N   0  0  0  0  0  0  0  0  0  0  0  0
    0.4726    0.3396    1.6658 C   0  0  0  0  0  0  0  0  0  0  0  0
   -0.1771    0.4890    2.8437 C   0  0  0  0  0  0  0  0  0  0  0  0
   -0.4936    1.8358    3.4384 C   0  0  0  0  0  0  0  0  0  0  0  0
    0.7626   -1.0029    1.0927 C   0  0  0  0  0  0  0  0  0  0  0  0
    0.9197   -2.0917    1.8824 C   0  0  0  0  0  0  0  0  0  0  0  0
    1.1953   -3.4673    1.3394 C   0  0  0  0  0  0  0  0  0  0  0  0
    1.2764   -3.5053   -0.1553 C   0  0  0  0  0  0  0  0  0  0  0  0
    1.1452   -2.3822   -0.8707 C   0  0  0  0  0  0  0  0  0  0  0  0
    0.9206   -1.1281   -0.3090 N   0  0  0  0  0  0  0  0  0  0  0  0
    0.9222    0.0792   -1.1720 C   0  0  0  0  0  0  0  0  0  0  0  0
    1.4476    1.3168   -0.4073 C   0  0  0  0  0  0  0  0  0  0  0  0
   -0.4181    0.2646   -1.8810 C   0  0  0  0  0  0  0  0  0  0  0  0
   -1.5494    0.7795   -1.2301 C   0  0  0  0  0  0  0  0  0  0  0  0
   -2.7616    0.9317   -1.9073 C   0  0  0  0  0  0  0  0  0  0  0  0
   -2.8668    0.5654   -3.2459 C   0  0  0  0  0  0  0  0  0  0  0  0
   -1.7604    0.0410   -3.9088 C   0  0  0  0  0  0  0  0  0  0  0  0
   -0.5474   -0.1107   -3.2319 C   0  0  0  0  0  0  0  0  0  0  0  0
   -0.1639    3.9921    2.9592 H   0  0  0  0  0  0  0  0  0  0  0  0
    0.9509    3.5761    0.8110 H   0  0  0  0  0  0  0  0  0  0  0  0
   -0.5191   -0.3641    3.4182 H   0  0  0  0  0  0  0  0  0  0  0  0
   -0.0325    1.9024    4.4301 H   0  0  0  0  0  0  0  0  0  0  0  0
   -1.5779    1.9235    3.5688 H   0  0  0  0  0  0  0  0  0  0  0  0
    0.8593   -2.0242    2.9624 H   0  0  0  0  0  0  0  0  0  0  0  0
    2.1386   -3.8354    1.7582 H   0  0  0  0  0  0  0  0  0  0  0  0
    0.3988   -4.1432    1.6699 H   0  0  0  0  0  0  0  0  0  0  0  0
    1.4467   -4.4566   -0.6458 H   0  0  0  0  0  0  0  0  0  0  0  0
    1.2090   -2.3986   -1.9546 H   0  0  0  0  0  0  0  0  0  0  0  0
    1.6719   -0.0795   -1.9610 H   0  0  0  0  0  0  0  0  0  0  0  0
    2.5279    1.2043   -0.2466 H   0  0  0  0  0  0  0  0  0  0  0  0
    1.3068    2.2138   -1.0247 H   0  0  0  0  0  0  0  0  0  0  0  0
   -1.5082    1.0608   -0.1811 H   0  0  0  0  0  0  0  0  0  0  0  0
   -3.6248    1.3308   -1.3809 H   0  0  0  0  0  0  0  0  0  0  0  0
   -3.8123    0.6796   -3.7678 H   0  0  0  0  0  0  0  0  0  0  0  0
   -1.8430   -0.2561   -4.9517 H   0  0  0  0  0  0  0  0  0  0  0  0
    0.2992   -0.5329   -3.7697 H   0  0  0  0  0  0  0  0  0  0  0  0
  2  1  2  0  0  0  0
  3  2  1  0  0  0  0
  4  3  1  0  0  0  0
  5  4  2  0  0  0  0
  6  5  1  0  0  0  0
  6  1  1  0  0  0  0
  7  4  1  0  0  0  0
  8  7  2  0  0  0  0
  9  8  1  0  0  0  0
 10  9  1  0  0  0  0
 11 10  2  0  0  0  0
 12 11  1  0  0  0  0
 12  7  1  0  0  0  0
 13 12  1  0  0  0  0
 14 13  1  0  0  0  0
 14  3  1  0  0  0  0
 15 13  1  0  0  0  0
 16 15  2  0  0  0  0
 17 16  1  0  0  0  0
 18 17  2  0  0  0  0
 19 18  1  0  0  0  0
 20 19  2  0  0  0  0
 20 15  1  0  0  0  0
  1 21  1  0  0  0  0
  2 22  1  0  0  0  0
  5 23  1  0  0  0  0
  6 24  1  0  0  0  0
  6 25  1  0  0  0  0
  8 26  1  0  0  0  0
  9 27  1  0  0  0  0
  9 28  1  0  0  0  0
 10 29  1  0  0  0  0
 11 30  1  0  0  0  0
 13 31  1  0  0  0  0
 14 32  1  0  0  0  0
 14 33  1  0  0  0  0
 16 34  1  0  0  0  0
 17 35  1  0  0  0  0
 18 36  1  0  0  0  0
 19 37  1  0  0  0  0
 20 38  1  0  0  0  0
M  END
>  <energy>
62.956553070022167

$$$$
