c1ccc2c(c1)c1c(C(=O)C2=O)cccc1
                    3D

 24 26  0  0  0  0  0  0  0  0999 V2000
   -2.7546    1.7393   -0.3722 C   0  0  0  0  0  0  0  0  0  0  0  0
   -3.5384    0.5943   -0.3481 C   0  0  0  0  0  0  0  0  0  0  0  0
   -2.9282   -0.6443   -0.1932 C   0  0  0  0  0  0  0  0  0  0  0  0
   -1.5305   -0.7353   -0.0651 C   0  0  0  0  0  0  0  0  0  0  0  0
   -0.7065    0.4053   -0.0917 C   0  0  0  0  0  0  0  0  0  0  0  0
   -1.3623    1.6451   -0.2448 C   0  0  0  0  0  0  0  0  0  0  0  0
    0.7680    0.2841    0.0358 C   0  0  0  0  0  0  0  0  0  0  0  0
    1.3769   -0.9715    0.2188 C   0  0  0  0  0  0  0  0  0  0  0  0
    0.5568   -2.1965    0.2782 C   0  0  0  0  0  0  0  0  0  0  0  0
    1.0668   -3.2936    0.4641 O   0  0  0  0  0  0  0  0  0  0  0  0
   -0.9411   -2.0775    0.1013 C   0  0  0  0  0  0  0  0  0  0  0  0
   -1.6399   -3.0825    0.0995 O   0  0  0  0  0  0  0  0  0  0  0  0
    2.7707   -1.1088    0.3474 C   0  0  0  0  0  0  0  0  0  0  0  0
    3.5930    0.0096    0.2908 C   0  0  0  0  0  0  0  0  0  0  0  0
    3.0245    1.2620    0.1056 C   0  0  0  0  0  0  0  0  0  0  0  0
    1.6352    1.3955   -0.0196 C   0  0  0  0  0  0  0  0  0  0  0  0
   -3.2230    2.7142   -0.4907 H   0  0  0  0  0  0  0  0  0  0  0  0
   -4.6188    0.6638   -0.4476 H   0  0  0  0  0  0  0  0  0  0  0  0
   -3.5429   -1.5434   -0.1712 H   0  0  0  0  0  0  0  0  0  0  0  0
   -0.8120    2.5816   -0.2689 H   0  0  0  0  0  0  0  0  0  0  0  0
    3.2164   -2.0925    0.4903 H   0  0  0  0  0  0  0  0  0  0  0  0
    4.6705   -0.0974    0.3888 H   0  0  0  0  0  0  0  0  0  0  0  0
    3.6601    2.1439    0.0570 H   0  0  0  0  0  0  0  0  0  0  0  0
    1.2595    2.4046   -0.1648 H   0  0  0  0  0  0  0  0  0  0  0  0
  2  1  2  0  0  0  0
  3  2  1  0  0  0  0
  4  3  2  0  0  0  0
  5  4  1  0  0  0  0
  6  5  2  0  0  0  0
  6  1  1  0  0  0  0
  7  5  1  0  0  0  0
  8  7  2  0  0  0  0
  9  8  1  0  0  0  0
 10  9  2  0  0  0  0
 11  9  1  0  0  0  0
 11  4  1  0  0  0  0
 12 11  2  0  0  0  0
 13  8  1  0  0  0  0
 14 13  2  0  0  0  0
 15 14  1  0  0  0  0
 16 15  2  0  0  0  0
 16  7  1  0  0  0  0
  1 17  1  0  0  0  0
  2 18  1  0  0  0  0
  3 19  1  0  0  0  0
  6 20  1  0  0  0  0
 13 21  1  0  0  0  0
 14 22  1  0  0  0  0
 15 23  1  0  0  0  0
 16 24  1  0  0  0  0
M  END
>  <energy>
93.409065180587362

$$$$
