N1C=C[C@H](C=C1)[C@H]1C=CNC=C1
                    3D

 24 25  0  0  0  0  0  0  0  0999 V2000
   -2.9218   -0.5867   -0.1797 N   0  0  0  0  0  0  0  0  0  0  0  0
   -2.1442   -0.8652    0.9130 C   0  0  0  0  0  0  0  0  0  0  0  0
   -1.0554   -0.1412    1.2123 C   0  0  0  0  0  0  0  0  0  0  0  0
   -0.6224    1.0307    0.3314 C   0  0  0  0  0  0  0  0  0  0  0  0
   -1.5880    1.2589   -0.8344 C   0  0  0  0  0  0  0  0  0  0  0  0
   -2.6493    0.4596   -1.0197 C   0  0  0  0  0  0  0  0  0  0  0  0
    0.8523    0.9086   -0.1732 C   0  0  0  0  0  0  0  0  0  0  0  0
    1.8485    1.1304    0.9679 C   0  0  0  0  0  0  0  0  0  0  0  0
    2.8006    0.2254    1.2402 C   0  0  0  0  0  0  0  0  0  0  0  0
    2.9298   -0.9287    0.5148 N   0  0  0  0  0  0  0  0  0  0  0  0
    2.1134   -1.2175   -0.5463 C   0  0  0  0  0  0  0  0  0  0  0  0
    1.1238   -0.3948   -0.9246 C   0  0  0  0  0  0  0  0  0  0  0  0
   -3.7466   -1.1517   -0.3494 H   0  0  0  0  0  0  0  0  0  0  0  0
   -2.4690   -1.7076    1.5147 H   0  0  0  0  0  0  0  0  0  0  0  0
   -0.4546   -0.3835    2.0823 H   0  0  0  0  0  0  0  0  0  0  0  0
   -0.6936    1.9325    0.9569 H   0  0  0  0  0  0  0  0  0  0  0  0
   -1.4017    2.0901   -1.5057 H   0  0  0  0  0  0  0  0  0  0  0  0
   -3.3523    0.5975   -1.8347 H   0  0  0  0  0  0  0  0  0  0  0  0
    1.0342    1.7240   -0.8887 H   0  0  0  0  0  0  0  0  0  0  0  0
    1.7757    2.0435    1.5485 H   0  0  0  0  0  0  0  0  0  0  0  0
    3.5225    0.3555    2.0399 H   0  0  0  0  0  0  0  0  0  0  0  0
    3.6768   -1.5741    0.7463 H   0  0  0  0  0  0  0  0  0  0  0  0
    2.3228   -2.1524   -1.0555 H   0  0  0  0  0  0  0  0  0  0  0  0
    0.4893   -0.6473   -1.7673 H   0  0  0  0  0  0  0  0  0  0  0  0
  2  1  1  0  0  0  0
  3  2  2  0  0  0  0
  4  3  1  0  0  0  0
  5  4  1  0  0  0  0
  6  5  2  0  0  0  0
  6  1  1  0  0  0  0
  7  4  1  0  0  0  0
  8  7  1  0  0  0  0
  9  8  2  0  0  0  0
 10  9  1  0  0  0  0
 11 10  1  0  0  0  0
 12 11  2  0  0  0  0
 12  7  1  0  0  0  0
  1 13  1  0  0  0  0
  2 14  1  0  0  0  0
  3 15  1  0  0  0  0
  4 16  1  0  0  0  0
  5 17  1  0  0  0  0
  6 18  1  0  0  0  0
  7 19  1  0  0  0  0
  8 20  1  0  0  0  0
  9 21  1  0  0  0  0
 10 22  1  0  0  0  0
 11 23  1  0  0  0  0
 12 24  1  0  0  0  0
M  END
>  <energy>
20.215071956510783

$$$$
N1C=C[C@H](C=C1)[C@H]1C=CNC=C1
                    3D

 24 25  0  0  0  0  0  0  0  0999 V2000
   -2.8890   -0.2911   -0.6518 N   0  0  0  0  0  0  0  0  0  0  0  0
   -2.7820   -0.5889    0.6805 C   0  0  0  0  0  0  0  0  0  0  0  0
   -1.7611   -0.1410    1.4267 C   0  0  0  0  0  0  0  0  0  0  0  0
   -0.6580    0.7269    0.8152 C   0  0  0  0  0  0  0  0  0  0  0  0
   -0.9137    1.0200   -0.6631 C   0  0  0  0  0  0  0  0  0  0  0  0
   -1.9792    0.5056   -1.2951 C   0  0  0  0  0  0  0  0  0  0  0  0
    0.7564    0.1185    1.0845 C   0  0  0  0  0  0  0  0  0  0  0  0
    1.0332   -1.1447    0.2691 C   0  0  0  0  0  0  0  0  0  0  0  0
    2.1141   -1.2345   -0.5203 C   0  0  0  0  0  0  0  0  0  0  0  0
    3.0216   -0.2138   -0.6259 N   0  0  0  0  0  0  0  0  0  0  0  0
    2.8914    0.9517    0.0803 C   0  0  0  0  0  0  0  0  0  0  0  0
    1.8536    1.1706    0.9017 C   0  0  0  0  0  0  0  0  0  0  0  0
   -3.6920   -0.6319   -1.1689 H   0  0  0  0  0  0  0  0  0  0  0  0
   -3.5804   -1.2011    1.0863 H   0  0  0  0  0  0  0  0  0  0  0  0
   -1.7077   -0.3773    2.4838 H   0  0  0  0  0  0  0  0  0  0  0  0
   -0.7174    1.6927    1.3378 H   0  0  0  0  0  0  0  0  0  0  0  0
   -0.2056    1.6458   -1.1953 H   0  0  0  0  0  0  0  0  0  0  0  0
   -2.1801    0.6902   -2.3450 H   0  0  0  0  0  0  0  0  0  0  0  0
    0.8027   -0.1778    2.1423 H   0  0  0  0  0  0  0  0  0  0  0  0
    0.3279   -1.9664    0.3331 H   0  0  0  0  0  0  0  0  0  0  0  0
    2.3299   -2.1143   -1.1176 H   0  0  0  0  0  0  0  0  0  0  0  0
    3.8315   -0.3396   -1.2228 H   0  0  0  0  0  0  0  0  0  0  0  0
    3.6853    1.6764   -0.0676 H   0  0  0  0  0  0  0  0  0  0  0  0
    1.7805    2.0977    1.4600 H   0  0  0  0  0  0  0  0  0  0  0  0
  2  1  1  0  0  0  0
  3  2  2  0  0  0  0
  4  3  1  0  0  0  0
  5  4  1  0  0  0  0
  6  5  2  0  0  0  0
  6  1  1  0  0  0  0
  7  4  1  0  0  0  0
  8  7  1  0  0  0  0
  9  8  2  0  0  0  0
 10  9  1  0  0  0  0
 11 10  1  0  0  0  0
 12 11  2  0  0  0  0
 12  7  1  0  0  0  0
  1 13  1  0  0  0  0
  2 14  1  0  0  0  0
  3 15  1  0  0  0  0
  4 16  1  0  0  0  0
  5 17  1  0  0  0  0
  6 18  1  0  0  0  0
  7 19  1  0  0  0  0
  8 20  1  0  0  0  0
  9 21  1  0  0  0  0
 10 22  1  0  0  0  0
 11 23  1  0  0  0  0
 12 24  1  0  0  0  0
M  END
>  <energy>
20.216514530266512

$$$$
