c1c(cc2c(c1)Nc1c(S2)c(ccc1)Cl)OC
                    3D

 27 29  0  0  0  0  0  0  0  0999 V2000
    2.6094    1.4795    0.7418 C   0  0  0  0  0  0  0  0  0  0  0  0
    3.0178    0.2423    0.2476 C   0  0  0  0  0  0  0  0  0  0  0  0
    2.0532   -0.6680   -0.1830 C   0  0  0  0  0  0  0  0  0  0  0  0
    0.6850   -0.3462   -0.1231 C   0  0  0  0  0  0  0  0  0  0  0  0
    0.2765    0.9051    0.3585 C   0  0  0  0  0  0  0  0  0  0  0  0
    1.2531    1.8063    0.8039 C   0  0  0  0  0  0  0  0  0  0  0  0
   -1.0773    1.2553    0.4767 N   0  0  0  0  0  0  0  0  0  0  0  0
   -2.1892    0.5064    0.0460 C   0  0  0  0  0  0  0  0  0  0  0  0
   -2.0749   -0.7993   -0.4773 C   0  0  0  0  0  0  0  0  0  0  0  0
   -0.4722   -1.5811   -0.6826 S   0  0  0  0  0  0  0  0  0  0  0  0
   -3.2528   -1.4861   -0.8437 C   0  0  0  0  0  0  0  0  0  0  0  0
   -4.5114   -0.8961   -0.6799 C   0  0  0  0  0  0  0  0  0  0  0  0
   -4.6188    0.3817   -0.1456 C   0  0  0  0  0  0  0  0  0  0  0  0
   -3.4661    1.0728    0.2191 C   0  0  0  0  0  0  0  0  0  0  0  0
   -3.2401   -3.0881   -1.5115 Cl  0  0  0  0  0  0  0  0  0  0  0  0
    4.3710    0.0476    0.2428 O   0  0  0  0  0  0  0  0  0  0  0  0
    4.8391   -1.2117   -0.2245 C   0  0  0  0  0  0  0  0  0  0  0  0
    3.3529    2.1939    1.0873 H   0  0  0  0  0  0  0  0  0  0  0  0
    2.3384   -1.6418   -0.5685 H   0  0  0  0  0  0  0  0  0  0  0  0
    0.9678    2.7741    1.2074 H   0  0  0  0  0  0  0  0  0  0  0  0
   -1.2547    2.2350    0.6584 H   0  0  0  0  0  0  0  0  0  0  0  0
   -5.4122   -1.4352   -0.9638 H   0  0  0  0  0  0  0  0  0  0  0  0
   -5.5964    0.8373   -0.0087 H   0  0  0  0  0  0  0  0  0  0  0  0
   -3.5690    2.0678    0.6467 H   0  0  0  0  0  0  0  0  0  0  0  0
    4.4645   -2.0292    0.4005 H   0  0  0  0  0  0  0  0  0  0  0  0
    4.5766   -1.3641   -1.2765 H   0  0  0  0  0  0  0  0  0  0  0  0
    5.9309   -1.2104   -0.1506 H   0  0  0  0  0  0  0  0  0  0  0  0
  2  1  2  0  0  0  0
  3  2  1  0  0  0  0
  4  3  2  0  0  0  0
  5  4  1  0  0  0  0
  6  5  2  0  0  0  0
  6  1  1  0  0  0  0
  7  5  1  0  0  0  0
  8  7  1  0  0  0  0
  9  8  2  0  0  0  0
 10  9  1  0  0  0  0
 10  4  1  0  0  0  0
 11  9  1  0  0  0  0
 12 11  2  0  0  0  0
 13 12  1  0  0  0  0
 14 13  2  0  0  0  0
 14  8  1  0  0  0  0
 15 11  1  0  0  0  0
 16  2  1  0  0  0  0
 17 16  1  0  0  0  0
  1 18  1  0  0  0  0
  3 19  1  0  0  0  0
  6 20  1  0  0  0  0
  7 21  1  0  0  0  0
 12 22  1  0  0  0  0
 13 23  1  0  0  0  0
 14 24  1  0  0  0  0
 17 25  1  0  0  0  0
 17 26  1  0  0  0  0
 17 27  1  0  0  0  0
M  END
>  <energy>
59.812999777794836

$$$$
