c1ccc2c(c1)N(c1c(S2)cccc1)CCN1CCCC1
                    3D

 41 44  0  0  0  0  0  0  0  0999 V2000
   -1.8812    3.4385   -1.1288 C   0  0  0  0  0  0  0  0  0  0  0  0
   -2.8068    3.0191   -2.0683 C   0  0  0  0  0  0  0  0  0  0  0  0
   -3.1903    1.6835   -2.0893 C   0  0  0  0  0  0  0  0  0  0  0  0
   -2.6504    0.7557   -1.1752 C   0  0  0  0  0  0  0  0  0  0  0  0
   -1.7110    1.1551   -0.2023 C   0  0  0  0  0  0  0  0  0  0  0  0
   -1.3456    2.5218   -0.2158 C   0  0  0  0  0  0  0  0  0  0  0  0
   -1.1487    0.2253    0.7212 N   0  0  0  0  0  0  0  0  0  0  0  0
   -1.2909   -1.1910    0.6614 C   0  0  0  0  0  0  0  0  0  0  0  0
   -2.1930   -1.8068   -0.2310 C   0  0  0  0  0  0  0  0  0  0  0  0
   -3.2639   -0.9053   -1.3258 S   0  0  0  0  0  0  0  0  0  0  0  0
   -2.3213   -3.2097   -0.2832 C   0  0  0  0  0  0  0  0  0  0  0  0
   -1.5600   -4.0323    0.5383 C   0  0  0  0  0  0  0  0  0  0  0  0
   -0.6583   -3.4564    1.4162 C   0  0  0  0  0  0  0  0  0  0  0  0
   -0.5268   -2.0627    1.4715 C   0  0  0  0  0  0  0  0  0  0  0  0
   -0.4289    0.7899    1.8901 C   0  0  0  0  0  0  0  0  0  0  0  0
    1.0829    0.9688    1.6055 C   0  0  0  0  0  0  0  0  0  0  0  0
    1.7941    1.6834    2.6774 N   0  0  0  0  0  0  0  0  0  0  0  0
    3.1923    1.9438    2.3243 C   0  0  0  0  0  0  0  0  0  0  0  0
    3.8177    2.3319    3.6546 C   0  0  0  0  0  0  0  0  0  0  0  0
    2.9449    1.6658    4.7132 C   0  0  0  0  0  0  0  0  0  0  0  0
    1.8590    0.9374    3.9354 C   0  0  0  0  0  0  0  0  0  0  0  0
   -1.5646    4.4778   -1.0996 H   0  0  0  0  0  0  0  0  0  0  0  0
   -3.2272    3.7222   -2.7811 H   0  0  0  0  0  0  0  0  0  0  0  0
   -3.9211    1.3618   -2.8287 H   0  0  0  0  0  0  0  0  0  0  0  0
   -0.6134    2.9240    0.4778 H   0  0  0  0  0  0  0  0  0  0  0  0
   -3.0271   -3.6697   -0.9723 H   0  0  0  0  0  0  0  0  0  0  0  0
   -1.6716   -5.1114    0.4893 H   0  0  0  0  0  0  0  0  0  0  0  0
   -0.0485   -4.0843    2.0607 H   0  0  0  0  0  0  0  0  0  0  0  0
    0.2135   -1.6888    2.1702 H   0  0  0  0  0  0  0  0  0  0  0  0
   -0.5837    0.1674    2.7801 H   0  0  0  0  0  0  0  0  0  0  0  0
   -0.8730    1.7448    2.1997 H   0  0  0  0  0  0  0  0  0  0  0  0
    1.5508   -0.0045    1.4155 H   0  0  0  0  0  0  0  0  0  0  0  0
    1.2020    1.5382    0.6753 H   0  0  0  0  0  0  0  0  0  0  0  0
    3.2876    2.7462    1.5855 H   0  0  0  0  0  0  0  0  0  0  0  0
    3.6849    1.0452    1.9313 H   0  0  0  0  0  0  0  0  0  0  0  0
    3.7999    3.4195    3.7906 H   0  0  0  0  0  0  0  0  0  0  0  0
    4.8595    2.0025    3.7213 H   0  0  0  0  0  0  0  0  0  0  0  0
    2.5086    2.4300    5.3665 H   0  0  0  0  0  0  0  0  0  0  0  0
    3.5200    0.9774    5.3411 H   0  0  0  0  0  0  0  0  0  0  0  0
    0.9098    0.9507    4.4796 H   0  0  0  0  0  0  0  0  0  0  0  0
    2.1540   -0.1068    3.7718 H   0  0  0  0  0  0  0  0  0  0  0  0
  2  1  2  0  0  0  0
  3  2  1  0  0  0  0
  4  3  2  0  0  0  0
  5  4  1  0  0  0  0
  6  5  2  0  0  0  0
  6  1  1  0  0  0  0
  7  5  1  0  0  0  0
  8  7  1  0  0  0  0
  9  8  2  0  0  0  0
 10  9  1  0  0  0  0
 10  4  1  0  0  0  0
 11  9  1  0  0  0  0
 12 11  2  0  0  0  0
 13 12  1  0  0  0  0
 14 13  2  0  0  0  0
 14  8  1  0  0  0  0
 15  7  1  0  0  0  0
 16 15  1  0  0  0  0
 17 16  1  0  0  0  0
 18 17  1  0  0  0  0
 19 18  1  0  0  0  0
 20 19  1  0  0  0  0
 21 20  1  0  0  0  0
 21 17  1  0  0  0  0
  1 22  1  0  0  0  0
  2 23  1  0  0  0  0
  3 24  1  0  0  0  0
  6 25  1  0  0  0  0
 11 26  1  0  0  0  0
 12 27  1  0  0  0  0
 13 28  1  0  0  0  0
 14 29  1  0  0  0  0
 15 30  1  0  0  0  0
 15 31  1  0  0  0  0
 16 32  1  0  0  0  0
 16 33  1  0  0  0  0
 18 34  1  0  0  0  0
 18 35  1  0  0  0  0
 19 36  1  0  0  0  0
 19 37  1  0  0  0  0
 20 38  1  0  0  0  0
 20 39  1  0  0  0  0
 21 40  1  0  0  0  0
 21 41  1  0  0  0  0
M  END
>  <energy>
92.501838170346701

$$$$
c1ccc2c(c1)N(c1c(S2)cccc1)CCN1CCCC1
                    3D

 41 44  0  0  0  0  0  0  0  0999 V2000
   -1.4799   -3.1330    2.1290 C   0  0  0  0  0  0  0  0  0  0  0  0
   -1.1967   -3.7607    0.9233 C   0  0  0  0  0  0  0  0  0  0  0  0
   -1.0894   -3.0008   -0.2426 C   0  0  0  0  0  0  0  0  0  0  0  0
   -1.2730   -1.6067   -0.2131 C   0  0  0  0  0  0  0  0  0  0  0  0
   -1.5163   -0.9528    1.0094 C   0  0  0  0  0  0  0  0  0  0  0  0
   -1.6302   -1.7444    2.1720 C   0  0  0  0  0  0  0  0  0  0  0  0
   -1.7088    0.4560    1.0905 N   0  0  0  0  0  0  0  0  0  0  0  0
   -2.0602    1.2695   -0.0195 C   0  0  0  0  0  0  0  0  0  0  0  0
   -1.8949    0.8390   -1.3504 C   0  0  0  0  0  0  0  0  0  0  0  0
   -1.1523   -0.7287   -1.7632 S   0  0  0  0  0  0  0  0  0  0  0  0
   -2.2792    1.6700   -2.4155 C   0  0  0  0  0  0  0  0  0  0  0  0
   -2.8490    2.9197   -2.1756 C   0  0  0  0  0  0  0  0  0  0  0  0
   -3.0358    3.3497   -0.8686 C   0  0  0  0  0  0  0  0  0  0  0  0
   -2.6523    2.5293    0.1930 C   0  0  0  0  0  0  0  0  0  0  0  0
   -0.8029    1.1196    2.0720 C   0  0  0  0  0  0  0  0  0  0  0  0
    0.6262    1.3177    1.5051 C   0  0  0  0  0  0  0  0  0  0  0  0
    1.6407    1.5232    2.5574 N   0  0  0  0  0  0  0  0  0  0  0  0
    2.9284    1.9253    1.9813 C   0  0  0  0  0  0  0  0  0  0  0  0
    3.9006    1.6770    3.1203 C   0  0  0  0  0  0  0  0  0  0  0  0
    3.3121    0.5020    3.8892 C   0  0  0  0  0  0  0  0  0  0  0  0
    1.9268    0.2845    3.2953 C   0  0  0  0  0  0  0  0  0  0  0  0
   -1.5987   -3.7213    3.0356 H   0  0  0  0  0  0  0  0  0  0  0  0
   -1.0705   -4.8403    0.8825 H   0  0  0  0  0  0  0  0  0  0  0  0
   -0.8713   -3.5036   -1.1822 H   0  0  0  0  0  0  0  0  0  0  0  0
   -1.8819   -1.2868    3.1261 H   0  0  0  0  0  0  0  0  0  0  0  0
   -2.1405    1.3455   -3.4455 H   0  0  0  0  0  0  0  0  0  0  0  0
   -3.1510    3.5501   -3.0069 H   0  0  0  0  0  0  0  0  0  0  0  0
   -3.4967    4.3153   -0.6719 H   0  0  0  0  0  0  0  0  0  0  0  0
   -2.8599    2.8711    1.2032 H   0  0  0  0  0  0  0  0  0  0  0  0
   -0.7656    0.5393    2.9999 H   0  0  0  0  0  0  0  0  0  0  0  0
   -1.1975    2.0913    2.3933 H   0  0  0  0  0  0  0  0  0  0  0  0
    0.9169    0.4781    0.8582 H   0  0  0  0  0  0  0  0  0  0  0  0
    0.6027    2.2094    0.8642 H   0  0  0  0  0  0  0  0  0  0  0  0
    2.9282    2.9769    1.6763 H   0  0  0  0  0  0  0  0  0  0  0  0
    3.1998    1.3085    1.1146 H   0  0  0  0  0  0  0  0  0  0  0  0
    3.9591    2.5576    3.7712 H   0  0  0  0  0  0  0  0  0  0  0  0
    4.9094    1.4615    2.7564 H   0  0  0  0  0  0  0  0  0  0  0  0
    3.2608    0.7345    4.9588 H   0  0  0  0  0  0  0  0  0  0  0  0
    3.9270   -0.3965    3.7691 H   0  0  0  0  0  0  0  0  0  0  0  0
    1.1849    0.0887    4.0760 H   0  0  0  0  0  0  0  0  0  0  0  0
    1.9504   -0.5895    2.6315 H   0  0  0  0  0  0  0  0  0  0  0  0
  2  1  2  0  0  0  0
  3  2  1  0  0  0  0
  4  3  2  0  0  0  0
  5  4  1  0  0  0  0
  6  5  2  0  0  0  0
  6  1  1  0  0  0  0
  7  5  1  0  0  0  0
  8  7  1  0  0  0  0
  9  8  2  0  0  0  0
 10  9  1  0  0  0  0
 10  4  1  0  0  0  0
 11  9  1  0  0  0  0
 12 11  2  0  0  0  0
 13 12  1  0  0  0  0
 14 13  2  0  0  0  0
 14  8  1  0  0  0  0
 15  7  1  0  0  0  0
 16 15  1  0  0  0  0
 17 16  1  0  0  0  0
 18 17  1  0  0  0  0
 19 18  1  0  0  0  0
 20 19  1  0  0  0  0
 21 20  1  0  0  0  0
 21 17  1  0  0  0  0
  1 22  1  0  0  0  0
  2 23  1  0  0  0  0
  3 24  1  0  0  0  0
  6 25  1  0  0  0  0
 11 26  1  0  0  0  0
 12 27  1  0  0  0  0
 13 28  1  0  0  0  0
 14 29  1  0  0  0  0
 15 30  1  0  0  0  0
 15 31  1  0  0  0  0
 16 32  1  0  0  0  0
 16 33  1  0  0  0  0
 18 34  1  0  0  0  0
 18 35  1  0  0  0  0
 19 36  1  0  0  0  0
 19 37  1  0  0  0  0
 20 38  1  0  0  0  0
 20 39  1  0  0  0  0
 21 40  1  0  0  0  0
 21 41  1  0  0  0  0
M  END
>  <energy>
93.630713636739713

$$$$
c1ccc2c(c1)N(c1c(S2)cccc1)CCN1CCCC1
                    3D

 41 44  0  0  0  0  0  0  0  0999 V2000
   -1.1432   -3.1854    1.9565 C   0  0  0  0  0  0  0  0  0  0  0  0
   -1.2850   -3.8367    0.7404 C   0  0  0  0  0  0  0  0  0  0  0  0
   -1.5153   -3.0880   -0.4092 C   0  0  0  0  0  0  0  0  0  0  0  0
   -1.5991   -1.6835   -0.3527 C   0  0  0  0  0  0  0  0  0  0  0  0
   -1.4328   -0.9990    0.8666 C   0  0  0  0  0  0  0  0  0  0  0  0
   -1.2186   -1.7883    2.0183 C   0  0  0  0  0  0  0  0  0  0  0  0
   -1.4996    0.4237    0.9486 N   0  0  0  0  0  0  0  0  0  0  0  0
   -1.9994    1.2694   -0.0816 C   0  0  0  0  0  0  0  0  0  0  0  0
   -2.2122    0.8015   -1.3934 C   0  0  0  0  0  0  0  0  0  0  0  0
   -1.8385   -0.8560   -1.9104 S   0  0  0  0  0  0  0  0  0  0  0  0
   -2.7208    1.6555   -2.3912 C   0  0  0  0  0  0  0  0  0  0  0  0
   -3.0460    2.9767   -2.1065 C   0  0  0  0  0  0  0  0  0  0  0  0
   -2.8793    3.4504   -0.8155 C   0  0  0  0  0  0  0  0  0  0  0  0
   -2.3780    2.6040    0.1817 C   0  0  0  0  0  0  0  0  0  0  0  0
   -0.5737    1.0549    1.9349 C   0  0  0  0  0  0  0  0  0  0  0  0
    0.9127    0.7803    1.5862 C   0  0  0  0  0  0  0  0  0  0  0  0
    1.8764    1.4516    2.4739 N   0  0  0  0  0  0  0  0  0  0  0  0
    3.2565    1.1740    2.0619 C   0  0  0  0  0  0  0  0  0  0  0  0
    4.0817    1.6112    3.2644 C   0  0  0  0  0  0  0  0  0  0  0  0
    3.1103    1.6075    4.4401 C   0  0  0  0  0  0  0  0  0  0  0  0
    1.8178    1.0320    3.8762 C   0  0  0  0  0  0  0  0  0  0  0  0
   -0.9777   -3.7585    2.8658 H   0  0  0  0  0  0  0  0  0  0  0  0
   -1.2268   -4.9211    0.6858 H   0  0  0  0  0  0  0  0  0  0  0  0
   -1.6259   -3.6078   -1.3579 H   0  0  0  0  0  0  0  0  0  0  0  0
   -1.1092   -1.3342    2.9970 H   0  0  0  0  0  0  0  0  0  0  0  0
   -2.8740    1.2880   -3.4030 H   0  0  0  0  0  0  0  0  0  0  0  0
   -3.4413    3.6232   -2.8874 H   0  0  0  0  0  0  0  0  0  0  0  0
   -3.1586    4.4729   -0.5735 H   0  0  0  0  0  0  0  0  0  0  0  0
   -2.3334    3.0111    1.1883 H   0  0  0  0  0  0  0  0  0  0  0  0
   -0.8085    0.7047    2.9459 H   0  0  0  0  0  0  0  0  0  0  0  0
   -0.7010    2.1398    2.0035 H   0  0  0  0  0  0  0  0  0  0  0  0
    1.1020   -0.2998    1.5783 H   0  0  0  0  0  0  0  0  0  0  0  0
    1.0825    1.1408    0.5622 H   0  0  0  0  0  0  0  0  0  0  0  0
    3.5372    1.7280    1.1602 H   0  0  0  0  0  0  0  0  0  0  0  0
    3.4169    0.1024    1.8775 H   0  0  0  0  0  0  0  0  0  0  0  0
    4.4835    2.6190    3.1164 H   0  0  0  0  0  0  0  0  0  0  0  0
    4.9228    0.9282    3.4271 H   0  0  0  0  0  0  0  0  0  0  0  0
    2.9549    2.6358    4.7872 H   0  0  0  0  0  0  0  0  0  0  0  0
    3.4873    1.0241    5.2863 H   0  0  0  0  0  0  0  0  0  0  0  0
    0.9488    1.4369    4.4039 H   0  0  0  0  0  0  0  0  0  0  0  0
    1.8195   -0.0605    3.9798 H   0  0  0  0  0  0  0  0  0  0  0  0
  2  1  2  0  0  0  0
  3  2  1  0  0  0  0
  4  3  2  0  0  0  0
  5  4  1  0  0  0  0
  6  5  2  0  0  0  0
  6  1  1  0  0  0  0
  7  5  1  0  0  0  0
  8  7  1  0  0  0  0
  9  8  2  0  0  0  0
 10  9  1  0  0  0  0
 10  4  1  0  0  0  0
 11  9  1  0  0  0  0
 12 11  2  0  0  0  0
 13 12  1  0  0  0  0
 14 13  2  0  0  0  0
 14  8  1  0  0  0  0
 15  7  1  0  0  0  0
 16 15  1  0  0  0  0
 17 16  1  0  0  0  0
 18 17  1  0  0  0  0
 19 18  1  0  0  0  0
 20 19  1  0  0  0  0
 21 20  1  0  0  0  0
 21 17  1  0  0  0  0
  1 22  1  0  0  0  0
  2 23  1  0  0  0  0
  3 24  1  0  0  0  0
  6 25  1  0  0  0  0
 11 26  1  0  0  0  0
 12 27  1  0  0  0  0
 13 28  1  0  0  0  0
 14 29  1  0  0  0  0
 15 30  1  0  0  0  0
 15 31  1  0  0  0  0
 16 32  1  0  0  0  0
 16 33  1  0  0  0  0
 18 34  1  0  0  0  0
 18 35  1  0  0  0  0
 19 36  1  0  0  0  0
 19 37  1  0  0  0  0
 20 38  1  0  0  0  0
 20 39  1  0  0  0  0
 21 40  1  0  0  0  0
 21 41  1  0  0  0  0
M  END
>  <energy>
94.148720132540518

$$$$
c1ccc2c(c1)N(c1c(S2)cccc1)CCN1CCCC1
                    3D

 41 44  0  0  0  0  0  0  0  0999 V2000
   -1.6029   -3.3248    1.9574 C   0  0  0  0  0  0  0  0  0  0  0  0
   -1.5459   -3.9255    0.7074 C   0  0  0  0  0  0  0  0  0  0  0  0
   -1.5484   -3.1295   -0.4323 C   0  0  0  0  0  0  0  0  0  0  0  0
   -1.5945   -1.7263   -0.3366 C   0  0  0  0  0  0  0  0  0  0  0  0
   -1.6110   -1.0970    0.9226 C   0  0  0  0  0  0  0  0  0  0  0  0
   -1.6389   -1.9283    2.0641 C   0  0  0  0  0  0  0  0  0  0  0  0
   -1.6071    0.3210    1.0521 N   0  0  0  0  0  0  0  0  0  0  0  0
   -1.8912    1.2334   -0.0030 C   0  0  0  0  0  0  0  0  0  0  0  0
   -1.9259    0.8303   -1.3496 C   0  0  0  0  0  0  0  0  0  0  0  0
   -1.5589   -0.8287   -1.8718 S   0  0  0  0  0  0  0  0  0  0  0  0
   -2.2325    1.7535   -2.3658 C   0  0  0  0  0  0  0  0  0  0  0  0
   -2.5424    3.0754   -2.0587 C   0  0  0  0  0  0  0  0  0  0  0  0
   -2.5442    3.4873   -0.7358 C   0  0  0  0  0  0  0  0  0  0  0  0
   -2.2276    2.5753    0.2740 C   0  0  0  0  0  0  0  0  0  0  0  0
   -0.7350    0.8570    2.1359 C   0  0  0  0  0  0  0  0  0  0  0  0
    0.7250    0.3548    2.0006 C   0  0  0  0  0  0  0  0  0  0  0  0
    1.6700    1.0565    2.8810 N   0  0  0  0  0  0  0  0  0  0  0  0
    1.9944    2.4101    2.4123 C   0  0  0  0  0  0  0  0  0  0  0  0
    3.3478    2.7148    3.0489 C   0  0  0  0  0  0  0  0  0  0  0  0
    3.8282    1.3923    3.6324 C   0  0  0  0  0  0  0  0  0  0  0  0
    2.9547    0.3542    2.9542 C   0  0  0  0  0  0  0  0  0  0  0  0
   -1.6281   -3.9368    2.8574 H   0  0  0  0  0  0  0  0  0  0  0  0
   -1.5144   -5.0089    0.6171 H   0  0  0  0  0  0  0  0  0  0  0  0
   -1.5178   -3.6104   -1.4077 H   0  0  0  0  0  0  0  0  0  0  0  0
   -1.6877   -1.4982    3.0624 H   0  0  0  0  0  0  0  0  0  0  0  0
   -2.2417    1.4386   -3.4079 H   0  0  0  0  0  0  0  0  0  0  0  0
   -2.7973    3.7749   -2.8495 H   0  0  0  0  0  0  0  0  0  0  0  0
   -2.8137    4.5087   -0.4719 H   0  0  0  0  0  0  0  0  0  0  0  0
   -2.3011    2.9289    1.2964 H   0  0  0  0  0  0  0  0  0  0  0  0
   -1.1462    0.5940    3.1173 H   0  0  0  0  0  0  0  0  0  0  0  0
   -0.7202    1.9498    2.1495 H   0  0  0  0  0  0  0  0  0  0  0  0
    0.7420   -0.7086    2.2675 H   0  0  0  0  0  0  0  0  0  0  0  0
    1.0474    0.4159    0.9550 H   0  0  0  0  0  0  0  0  0  0  0  0
    1.2409    3.1413    2.7241 H   0  0  0  0  0  0  0  0  0  0  0  0
    2.0892    2.4611    1.3192 H   0  0  0  0  0  0  0  0  0  0  0  0
    3.2672    3.4785    3.8275 H   0  0  0  0  0  0  0  0  0  0  0  0
    4.0493    3.0816    2.2938 H   0  0  0  0  0  0  0  0  0  0  0  0
    3.6569    1.3802    4.7163 H   0  0  0  0  0  0  0  0  0  0  0  0
    4.8945    1.2221    3.4556 H   0  0  0  0  0  0  0  0  0  0  0  0
    2.8909   -0.5636    3.5474 H   0  0  0  0  0  0  0  0  0  0  0  0
    3.3506    0.1080    1.9583 H   0  0  0  0  0  0  0  0  0  0  0  0
  2  1  2  0  0  0  0
  3  2  1  0  0  0  0
  4  3  2  0  0  0  0
  5  4  1  0  0  0  0
  6  5  2  0  0  0  0
  6  1  1  0  0  0  0
  7  5  1  0  0  0  0
  8  7  1  0  0  0  0
  9  8  2  0  0  0  0
 10  9  1  0  0  0  0
 10  4  1  0  0  0  0
 11  9  1  0  0  0  0
 12 11  2  0  0  0  0
 13 12  1  0  0  0  0
 14 13  2  0  0  0  0
 14  8  1  0  0  0  0
 15  7  1  0  0  0  0
 16 15  1  0  0  0  0
 17 16  1  0  0  0  0
 18 17  1  0  0  0  0
 19 18  1  0  0  0  0
 20 19  1  0  0  0  0
 21 20  1  0  0  0  0
 21 17  1  0  0  0  0
  1 22  1  0  0  0  0
  2 23  1  0  0  0  0
  3 24  1  0  0  0  0
  6 25  1  0  0  0  0
 11 26  1  0  0  0  0
 12 27  1  0  0  0  0
 13 28  1  0  0  0  0
 14 29  1  0  0  0  0
 15 30  1  0  0  0  0
 15 31  1  0  0  0  0
 16 32  1  0  0  0  0
 16 33  1  0  0  0  0
 18 34  1  0  0  0  0
 18 35  1  0  0  0  0
 19 36  1  0  0  0  0
 19 37  1  0  0  0  0
 20 38  1  0  0  0  0
 20 39  1  0  0  0  0
 21 40  1  0  0  0  0
 21 41  1  0  0  0  0
M  END
>  <energy>
94.721213282639553

$$$$
c1ccc2c(c1)N(c1c(S2)cccc1)CCN1CCCC1
                    3D

 41 44  0  0  0  0  0  0  0  0999 V2000
   -1.4807    3.5286   -0.3132 C   0  0  0  0  0  0  0  0  0  0  0  0
   -1.9112    3.2690   -1.6018 C   0  0  0  0  0  0  0  0  0  0  0  0
   -2.1284    1.9516   -1.9852 C   0  0  0  0  0  0  0  0  0  0  0  0
   -1.9248    0.8845   -1.0849 C   0  0  0  0  0  0  0  0  0  0  0  0
   -1.5056    1.1175    0.2405 C   0  0  0  0  0  0  0  0  0  0  0  0
   -1.2788    2.4715    0.5840 C   0  0  0  0  0  0  0  0  0  0  0  0
   -1.2848    0.0480    1.1633 N   0  0  0  0  0  0  0  0  0  0  0  0
   -1.3818   -1.3440    0.8553 C   0  0  0  0  0  0  0  0  0  0  0  0
   -1.7768   -1.7988   -0.4199 C   0  0  0  0  0  0  0  0  0  0  0  0
   -2.2450   -0.7271   -1.7542 S   0  0  0  0  0  0  0  0  0  0  0  0
   -1.8559   -3.1763   -0.7136 C   0  0  0  0  0  0  0  0  0  0  0  0
   -1.5439   -4.1343    0.2418 C   0  0  0  0  0  0  0  0  0  0  0  0
   -1.1522   -3.7202    1.5024 C   0  0  0  0  0  0  0  0  0  0  0  0
   -1.0742   -2.3523    1.7990 C   0  0  0  0  0  0  0  0  0  0  0  0
   -1.1994    0.4152    2.6017 C   0  0  0  0  0  0  0  0  0  0  0  0
    0.2365    0.4380    3.1959 C   0  0  0  0  0  0  0  0  0  0  0  0
    1.1126    1.5443    2.7752 N   0  0  0  0  0  0  0  0  0  0  0  0
    1.8483    1.2454    1.5385 C   0  0  0  0  0  0  0  0  0  0  0  0
    2.9324    2.3137    1.5222 C   0  0  0  0  0  0  0  0  0  0  0  0
    3.1565    2.6731    2.9858 C   0  0  0  0  0  0  0  0  0  0  0  0
    2.1711    1.8081    3.7564 C   0  0  0  0  0  0  0  0  0  0  0  0
   -1.2882    4.5499    0.0043 H   0  0  0  0  0  0  0  0  0  0  0  0
   -2.0683    4.0796   -2.3075 H   0  0  0  0  0  0  0  0  0  0  0  0
   -2.4586    1.7529   -3.0031 H   0  0  0  0  0  0  0  0  0  0  0  0
   -0.8951    2.7526    1.5604 H   0  0  0  0  0  0  0  0  0  0  0  0
   -2.1694   -3.5081   -1.7015 H   0  0  0  0  0  0  0  0  0  0  0  0
   -1.6111   -5.1913    0.0016 H   0  0  0  0  0  0  0  0  0  0  0  0
   -0.9029   -4.4551    2.2643 H   0  0  0  0  0  0  0  0  0  0  0  0
   -0.7549   -2.1133    2.8068 H   0  0  0  0  0  0  0  0  0  0  0  0
   -1.8066   -0.2826    3.1954 H   0  0  0  0  0  0  0  0  0  0  0  0
   -1.7003    1.3656    2.8201 H   0  0  0  0  0  0  0  0  0  0  0  0
    0.0886    0.5279    4.2817 H   0  0  0  0  0  0  0  0  0  0  0  0
    0.7411   -0.5229    3.0478 H   0  0  0  0  0  0  0  0  0  0  0  0
    1.2364    1.3038    0.6374 H   0  0  0  0  0  0  0  0  0  0  0  0
    2.3145    0.2522    1.5739 H   0  0  0  0  0  0  0  0  0  0  0  0
    2.5971    3.2006    0.9710 H   0  0  0  0  0  0  0  0  0  0  0  0
    3.8499    1.9499    1.0486 H   0  0  0  0  0  0  0  0  0  0  0  0
    2.9480    3.7379    3.1447 H   0  0  0  0  0  0  0  0  0  0  0  0
    4.1885    2.4822    3.2988 H   0  0  0  0  0  0  0  0  0  0  0  0
    1.7914    2.3267    4.6425 H   0  0  0  0  0  0  0  0  0  0  0  0
    2.6643    0.8812    4.0775 H   0  0  0  0  0  0  0  0  0  0  0  0
  2  1  2  0  0  0  0
  3  2  1  0  0  0  0
  4  3  2  0  0  0  0
  5  4  1  0  0  0  0
  6  5  2  0  0  0  0
  6  1  1  0  0  0  0
  7  5  1  0  0  0  0
  8  7  1  0  0  0  0
  9  8  2  0  0  0  0
 10  9  1  0  0  0  0
 10  4  1  0  0  0  0
 11  9  1  0  0  0  0
 12 11  2  0  0  0  0
 13 12  1  0  0  0  0
 14 13  2  0  0  0  0
 14  8  1  0  0  0  0
 15  7  1  0  0  0  0
 16 15  1  0  0  0  0
 17 16  1  0  0  0  0
 18 17  1  0  0  0  0
 19 18  1  0  0  0  0
 20 19  1  0  0  0  0
 21 20  1  0  0  0  0
 21 17  1  0  0  0  0
  1 22  1  0  0  0  0
  2 23  1  0  0  0  0
  3 24  1  0  0  0  0
  6 25  1  0  0  0  0
 11 26  1  0  0  0  0
 12 27  1  0  0  0  0
 13 28  1  0  0  0  0
 14 29  1  0  0  0  0
 15 30  1  0  0  0  0
 15 31  1  0  0  0  0
 16 32  1  0  0  0  0
 16 33  1  0  0  0  0
 18 34  1  0  0  0  0
 18 35  1  0  0  0  0
 19 36  1  0  0  0  0
 19 37  1  0  0  0  0
 20 38  1  0  0  0  0
 20 39  1  0  0  0  0
 21 40  1  0  0  0  0
 21 41  1  0  0  0  0
M  END
>  <energy>
97.434715306769036

$$$$
c1ccc2c(c1)N(c1c(S2)cccc1)CCN1CCCC1
                    3D

 41 44  0  0  0  0  0  0  0  0999 V2000
   -2.1116    3.6014   -0.8993 C   0  0  0  0  0  0  0  0  0  0  0  0
   -2.3891    3.0873   -2.1527 C   0  0  0  0  0  0  0  0  0  0  0  0
   -2.3661    1.7119   -2.3366 C   0  0  0  0  0  0  0  0  0  0  0  0
   -2.0623    0.8401   -1.2715 C   0  0  0  0  0  0  0  0  0  0  0  0
   -1.7664    1.3331    0.0161 C   0  0  0  0  0  0  0  0  0  0  0  0
   -1.8102    2.7371    0.1626 C   0  0  0  0  0  0  0  0  0  0  0  0
   -1.4222    0.4642    1.0916 N   0  0  0  0  0  0  0  0  0  0  0  0
   -1.2252   -0.9473    0.9837 C   0  0  0  0  0  0  0  0  0  0  0  0
   -1.5018   -1.6495   -0.2063 C   0  0  0  0  0  0  0  0  0  0  0  0
   -2.1386   -0.8873   -1.6761 S   0  0  0  0  0  0  0  0  0  0  0  0
   -1.2892   -3.0396   -0.2970 C   0  0  0  0  0  0  0  0  0  0  0  0
   -0.7875   -3.7623    0.7787 C   0  0  0  0  0  0  0  0  0  0  0  0
   -0.4774   -3.0943    1.9500 C   0  0  0  0  0  0  0  0  0  0  0  0
   -0.6903   -1.7144    2.0446 C   0  0  0  0  0  0  0  0  0  0  0  0
   -1.4766    1.0203    2.4678 C   0  0  0  0  0  0  0  0  0  0  0  0
   -0.1786    1.7132    2.9734 C   0  0  0  0  0  0  0  0  0  0  0  0
    1.0858    0.9607    2.9133 N   0  0  0  0  0  0  0  0  0  0  0  0
    2.1228    1.5769    3.7479 C   0  0  0  0  0  0  0  0  0  0  0  0
    3.3810    0.8816    3.2664 C   0  0  0  0  0  0  0  0  0  0  0  0
    3.1532    0.6863    1.7746 C   0  0  0  0  0  0  0  0  0  0  0  0
    1.6642    0.9364    1.5577 C   0  0  0  0  0  0  0  0  0  0  0  0
   -2.1214    4.6767   -0.7376 H   0  0  0  0  0  0  0  0  0  0  0  0
   -2.6206    3.7474   -2.9842 H   0  0  0  0  0  0  0  0  0  0  0  0
   -2.5923    1.3121   -3.3230 H   0  0  0  0  0  0  0  0  0  0  0  0
   -1.6058    3.2174    1.1103 H   0  0  0  0  0  0  0  0  0  0  0  0
   -1.5141   -3.5693   -1.2201 H   0  0  0  0  0  0  0  0  0  0  0  0
   -0.6213   -4.8319    0.6925 H   0  0  0  0  0  0  0  0  0  0  0  0
   -0.0528   -3.6337    2.7927 H   0  0  0  0  0  0  0  0  0  0  0  0
   -0.3776   -1.2519    2.9761 H   0  0  0  0  0  0  0  0  0  0  0  0
   -1.7854    0.2609    3.1966 H   0  0  0  0  0  0  0  0  0  0  0  0
   -2.3027    1.7414    2.5472 H   0  0  0  0  0  0  0  0  0  0  0  0
   -0.0493    2.6844    2.4844 H   0  0  0  0  0  0  0  0  0  0  0  0
   -0.3773    1.9461    4.0297 H   0  0  0  0  0  0  0  0  0  0  0  0
    1.9520    1.4040    4.8151 H   0  0  0  0  0  0  0  0  0  0  0  0
    2.1976    2.6571    3.5723 H   0  0  0  0  0  0  0  0  0  0  0  0
    3.4880   -0.0943    3.7577 H   0  0  0  0  0  0  0  0  0  0  0  0
    4.2849    1.4646    3.4749 H   0  0  0  0  0  0  0  0  0  0  0  0
    3.4447   -0.3255    1.4726 H   0  0  0  0  0  0  0  0  0  0  0  0
    3.7487    1.3960    1.1909 H   0  0  0  0  0  0  0  0  0  0  0  0
    1.2429    0.1529    0.9239 H   0  0  0  0  0  0  0  0  0  0  0  0
    1.5308    1.8952    1.0397 H   0  0  0  0  0  0  0  0  0  0  0  0
  2  1  2  0  0  0  0
  3  2  1  0  0  0  0
  4  3  2  0  0  0  0
  5  4  1  0  0  0  0
  6  5  2  0  0  0  0
  6  1  1  0  0  0  0
  7  5  1  0  0  0  0
  8  7  1  0  0  0  0
  9  8  2  0  0  0  0
 10  9  1  0  0  0  0
 10  4  1  0  0  0  0
 11  9  1  0  0  0  0
 12 11  2  0  0  0  0
 13 12  1  0  0  0  0
 14 13  2  0  0  0  0
 14  8  1  0  0  0  0
 15  7  1  0  0  0  0
 16 15  1  0  0  0  0
 17 16  1  0  0  0  0
 18 17  1  0  0  0  0
 19 18  1  0  0  0  0
 20 19  1  0  0  0  0
 21 20  1  0  0  0  0
 21 17  1  0  0  0  0
  1 22  1  0  0  0  0
  2 23  1  0  0  0  0
  3 24  1  0  0  0  0
  6 25  1  0  0  0  0
 11 26  1  0  0  0  0
 12 27  1  0  0  0  0
 13 28  1  0  0  0  0
 14 29  1  0  0  0  0
 15 30  1  0  0  0  0
 15 31  1  0  0  0  0
 16 32  1  0  0  0  0
 16 33  1  0  0  0  0
 18 34  1  0  0  0  0
 18 35  1  0  0  0  0
 19 36  1  0  0  0  0
 19 37  1  0  0  0  0
 20 38  1  0  0  0  0
 20 39  1  0  0  0  0
 21 40  1  0  0  0  0
 21 41  1  0  0  0  0
M  END
>  <energy>
97.845231674307314

$$$$
c1ccc2c(c1)N(c1c(S2)cccc1)CCN1CCCC1
                    3D

 41 44  0  0  0  0  0  0  0  0999 V2000
   -1.8383   -3.3432    1.8763 C   0  0  0  0  0  0  0  0  0  0  0  0
   -1.3967   -3.8517    0.6626 C   0  0  0  0  0  0  0  0  0  0  0  0
   -1.0070   -2.9780   -0.3479 C   0  0  0  0  0  0  0  0  0  0  0  0
   -1.0602   -1.5877   -0.1513 C   0  0  0  0  0  0  0  0  0  0  0  0
   -1.5002   -1.0480    1.0750 C   0  0  0  0  0  0  0  0  0  0  0  0
   -1.8956   -1.9592    2.0746 C   0  0  0  0  0  0  0  0  0  0  0  0
   -1.6049    0.3519    1.2724 N   0  0  0  0  0  0  0  0  0  0  0  0
   -1.7363    1.2863    0.2142 C   0  0  0  0  0  0  0  0  0  0  0  0
   -1.2928    0.9871   -1.0888 C   0  0  0  0  0  0  0  0  0  0  0  0
   -0.4925   -0.5554   -1.4918 S   0  0  0  0  0  0  0  0  0  0  0  0
   -1.4794    1.9059   -2.1366 C   0  0  0  0  0  0  0  0  0  0  0  0
   -2.1397    3.1108   -1.9178 C   0  0  0  0  0  0  0  0  0  0  0  0
   -2.6151    3.4094   -0.6482 C   0  0  0  0  0  0  0  0  0  0  0  0
   -2.4116    2.5089    0.4025 C   0  0  0  0  0  0  0  0  0  0  0  0
   -1.3230    0.8926    2.6251 C   0  0  0  0  0  0  0  0  0  0  0  0
    0.0563    0.4859    3.2122 C   0  0  0  0  0  0  0  0  0  0  0  0
    1.2251    0.8191    2.3924 N   0  0  0  0  0  0  0  0  0  0  0  0
    2.4791    0.3753    2.9966 C   0  0  0  0  0  0  0  0  0  0  0  0
    3.5387    1.1138    2.1910 C   0  0  0  0  0  0  0  0  0  0  0  0
    2.8069    2.2887    1.5494 C   0  0  0  0  0  0  0  0  0  0  0  0
    1.4012    2.2432    2.1272 C   0  0  0  0  0  0  0  0  0  0  0  0
   -2.1551   -4.0190    2.6679 H   0  0  0  0  0  0  0  0  0  0  0  0
   -1.3606   -4.9250    0.4981 H   0  0  0  0  0  0  0  0  0  0  0  0
   -0.6603   -3.3843   -1.2944 H   0  0  0  0  0  0  0  0  0  0  0  0
   -2.2820   -1.6054    3.0247 H   0  0  0  0  0  0  0  0  0  0  0  0
   -1.1247    1.6718   -3.1379 H   0  0  0  0  0  0  0  0  0  0  0  0
   -2.3010    3.8014   -2.7428 H   0  0  0  0  0  0  0  0  0  0  0  0
   -3.1596    4.3341   -0.4765 H   0  0  0  0  0  0  0  0  0  0  0  0
   -2.8462    2.7611    1.3646 H   0  0  0  0  0  0  0  0  0  0  0  0
   -2.1184    0.5831    3.3133 H   0  0  0  0  0  0  0  0  0  0  0  0
   -1.3508    1.9873    2.6464 H   0  0  0  0  0  0  0  0  0  0  0  0
    0.1463    0.9546    4.2021 H   0  0  0  0  0  0  0  0  0  0  0  0
    0.0598   -0.5952    3.3903 H   0  0  0  0  0  0  0  0  0  0  0  0
    2.6093   -0.7097    2.9303 H   0  0  0  0  0  0  0  0  0  0  0  0
    2.5496    0.6670    4.0524 H   0  0  0  0  0  0  0  0  0  0  0  0
    3.9661    0.4662    1.4165 H   0  0  0  0  0  0  0  0  0  0  0  0
    4.3570    1.4546    2.8343 H   0  0  0  0  0  0  0  0  0  0  0  0
    2.7831    2.1565    0.4610 H   0  0  0  0  0  0  0  0  0  0  0  0
    3.3036    3.2417    1.7556 H   0  0  0  0  0  0  0  0  0  0  0  0
    0.6689    2.6420    1.4201 H   0  0  0  0  0  0  0  0  0  0  0  0
    1.3533    2.8373    3.0479 H   0  0  0  0  0  0  0  0  0  0  0  0
  2  1  2  0  0  0  0
  3  2  1  0  0  0  0
  4  3  2  0  0  0  0
  5  4  1  0  0  0  0
  6  5  2  0  0  0  0
  6  1  1  0  0  0  0
  7  5  1  0  0  0  0
  8  7  1  0  0  0  0
  9  8  2  0  0  0  0
 10  9  1  0  0  0  0
 10  4  1  0  0  0  0
 11  9  1  0  0  0  0
 12 11  2  0  0  0  0
 13 12  1  0  0  0  0
 14 13  2  0  0  0  0
 14  8  1  0  0  0  0
 15  7  1  0  0  0  0
 16 15  1  0  0  0  0
 17 16  1  0  0  0  0
 18 17  1  0  0  0  0
 19 18  1  0  0  0  0
 20 19  1  0  0  0  0
 21 20  1  0  0  0  0
 21 17  1  0  0  0  0
  1 22  1  0  0  0  0
  2 23  1  0  0  0  0
  3 24  1  0  0  0  0
  6 25  1  0  0  0  0
 11 26  1  0  0  0  0
 12 27  1  0  0  0  0
 13 28  1  0  0  0  0
 14 29  1  0  0  0  0
 15 30  1  0  0  0  0
 15 31  1  0  0  0  0
 16 32  1  0  0  0  0
 16 33  1  0  0  0  0
 18 34  1  0  0  0  0
 18 35  1  0  0  0  0
 19 36  1  0  0  0  0
 19 37  1  0  0  0  0
 20 38  1  0  0  0  0
 20 39  1  0  0  0  0
 21 40  1  0  0  0  0
 21 41  1  0  0  0  0
M  END
>  <energy>
98.7003227883703

$$$$
c1ccc2c(c1)N(c1c(S2)cccc1)CCN1CCCC1
                    3D

 41 44  0  0  0  0  0  0  0  0999 V2000
   -1.9031   -3.7058    1.5079 C   0  0  0  0  0  0  0  0  0  0  0  0
   -1.6019   -4.0594    0.2006 C   0  0  0  0  0  0  0  0  0  0  0  0
   -1.2658   -3.0673   -0.7141 C   0  0  0  0  0  0  0  0  0  0  0  0
   -1.2180   -1.7152   -0.3241 C   0  0  0  0  0  0  0  0  0  0  0  0
   -1.4886   -1.3347    1.0080 C   0  0  0  0  0  0  0  0  0  0  0  0
   -1.8516   -2.3636    1.9002 C   0  0  0  0  0  0  0  0  0  0  0  0
   -1.4618    0.0260    1.4165 N   0  0  0  0  0  0  0  0  0  0  0  0
   -1.5499    1.1251    0.5240 C   0  0  0  0  0  0  0  0  0  0  0  0
   -1.2510    0.9908   -0.8480 C   0  0  0  0  0  0  0  0  0  0  0  0
   -0.7564   -0.5513   -1.5873 S   0  0  0  0  0  0  0  0  0  0  0  0
   -1.2982    2.1050   -1.7045 C   0  0  0  0  0  0  0  0  0  0  0  0
   -1.6785    3.3551   -1.2268 C   0  0  0  0  0  0  0  0  0  0  0  0
   -2.0442    3.4937    0.1027 C   0  0  0  0  0  0  0  0  0  0  0  0
   -1.9959    2.3897    0.9583 C   0  0  0  0  0  0  0  0  0  0  0  0
   -1.0107    0.3141    2.8055 C   0  0  0  0  0  0  0  0  0  0  0  0
    0.4925    0.0203    3.0828 C   0  0  0  0  0  0  0  0  0  0  0  0
    1.5319    0.9591    2.6462 N   0  0  0  0  0  0  0  0  0  0  0  0
    1.9442    0.8367    1.2508 C   0  0  0  0  0  0  0  0  0  0  0  0
    2.3967    2.2313    0.8296 C   0  0  0  0  0  0  0  0  0  0  0  0
    2.4018    3.0371    2.1150 C   0  0  0  0  0  0  0  0  0  0  0  0
    1.3224    2.3688    2.9458 C   0  0  0  0  0  0  0  0  0  0  0  0
   -2.1890   -4.4706    2.2264 H   0  0  0  0  0  0  0  0  0  0  0  0
   -1.6335   -5.1009   -0.1100 H   0  0  0  0  0  0  0  0  0  0  0  0
   -1.0424   -3.3504   -1.7414 H   0  0  0  0  0  0  0  0  0  0  0  0
   -2.1481   -2.1416    2.9206 H   0  0  0  0  0  0  0  0  0  0  0  0
   -1.0394    1.9982   -2.7553 H   0  0  0  0  0  0  0  0  0  0  0  0
   -1.7121    4.2083   -1.8981 H   0  0  0  0  0  0  0  0  0  0  0  0
   -2.3844    4.4552    0.4817 H   0  0  0  0  0  0  0  0  0  0  0  0
   -2.3555    2.5371    1.9729 H   0  0  0  0  0  0  0  0  0  0  0  0
   -1.6100   -0.2656    3.5166 H   0  0  0  0  0  0  0  0  0  0  0  0
   -1.2214    1.3387    3.1235 H   0  0  0  0  0  0  0  0  0  0  0  0
    0.5871   -0.0351    4.1764 H   0  0  0  0  0  0  0  0  0  0  0  0
    0.7539   -0.9857    2.7343 H   0  0  0  0  0  0  0  0  0  0  0  0
    1.1560    0.4813    0.5902 H   0  0  0  0  0  0  0  0  0  0  0  0
    2.7754    0.1276    1.1812 H   0  0  0  0  0  0  0  0  0  0  0  0
    1.6809    2.6658    0.1212 H   0  0  0  0  0  0  0  0  0  0  0  0
    3.3828    2.2291    0.3557 H   0  0  0  0  0  0  0  0  0  0  0  0
    2.2089    4.0997    1.9426 H   0  0  0  0  0  0  0  0  0  0  0  0
    3.3776    2.9422    2.6054 H   0  0  0  0  0  0  0  0  0  0  0  0
    0.3451    2.7356    2.6236 H   0  0  0  0  0  0  0  0  0  0  0  0
    1.4424    2.5913    4.0103 H   0  0  0  0  0  0  0  0  0  0  0  0
  2  1  2  0  0  0  0
  3  2  1  0  0  0  0
  4  3  2  0  0  0  0
  5  4  1  0  0  0  0
  6  5  2  0  0  0  0
  6  1  1  0  0  0  0
  7  5  1  0  0  0  0
  8  7  1  0  0  0  0
  9  8  2  0  0  0  0
 10  9  1  0  0  0  0
 10  4  1  0  0  0  0
 11  9  1  0  0  0  0
 12 11  2  0  0  0  0
 13 12  1  0  0  0  0
 14 13  2  0  0  0  0
 14  8  1  0  0  0  0
 15  7  1  0  0  0  0
 16 15  1  0  0  0  0
 17 16  1  0  0  0  0
 18 17  1  0  0  0  0
 19 18  1  0  0  0  0
 20 19  1  0  0  0  0
 21 20  1  0  0  0  0
 21 17  1  0  0  0  0
  1 22  1  0  0  0  0
  2 23  1  0  0  0  0
  3 24  1  0  0  0  0
  6 25  1  0  0  0  0
 11 26  1  0  0  0  0
 12 27  1  0  0  0  0
 13 28  1  0  0  0  0
 14 29  1  0  0  0  0
 15 30  1  0  0  0  0
 15 31  1  0  0  0  0
 16 32  1  0  0  0  0
 16 33  1  0  0  0  0
 18 34  1  0  0  0  0
 18 35  1  0  0  0  0
 19 36  1  0  0  0  0
 19 37  1  0  0  0  0
 20 38  1  0  0  0  0
 20 39  1  0  0  0  0
 21 40  1  0  0  0  0
 21 41  1  0  0  0  0
M  END
>  <energy>
100.20640875330194

$$$$
c1ccc2c(c1)N(c1c(S2)cccc1)CCN1CCCC1
                    3D

 41 44  0  0  0  0  0  0  0  0999 V2000
   -1.3728   -3.4702    1.8849 C   0  0  0  0  0  0  0  0  0  0  0  0
   -1.6640   -4.0088    0.6420 C   0  0  0  0  0  0  0  0  0  0  0  0
   -1.8951   -3.1546   -0.4336 C   0  0  0  0  0  0  0  0  0  0  0  0
   -1.8115   -1.7550   -0.2836 C   0  0  0  0  0  0  0  0  0  0  0  0
   -1.4690   -1.1926    0.9603 C   0  0  0  0  0  0  0  0  0  0  0  0
   -1.2870   -2.0822    2.0428 C   0  0  0  0  0  0  0  0  0  0  0  0
   -1.3177    0.2143    1.1397 N   0  0  0  0  0  0  0  0  0  0  0  0
   -1.6943    1.2068    0.1836 C   0  0  0  0  0  0  0  0  0  0  0  0
   -2.0413    0.8759   -1.1365 C   0  0  0  0  0  0  0  0  0  0  0  0
   -2.0868   -0.7911   -1.7532 S   0  0  0  0  0  0  0  0  0  0  0  0
   -2.3528    1.8862   -2.0665 C   0  0  0  0  0  0  0  0  0  0  0  0
   -2.3385    3.2313   -1.7052 C   0  0  0  0  0  0  0  0  0  0  0  0
   -2.0580    3.5747   -0.3899 C   0  0  0  0  0  0  0  0  0  0  0  0
   -1.7738    2.5729    0.5467 C   0  0  0  0  0  0  0  0  0  0  0  0
   -0.1433    0.5963    1.9748 C   0  0  0  0  0  0  0  0  0  0  0  0
    1.2170    0.1906    1.3492 C   0  0  0  0  0  0  0  0  0  0  0  0
    2.4290    0.8216    1.9094 N   0  0  0  0  0  0  0  0  0  0  0  0
    2.6116    0.6208    3.3464 C   0  0  0  0  0  0  0  0  0  0  0  0
    2.1408    1.8890    4.0396 C   0  0  0  0  0  0  0  0  0  0  0  0
    2.1169    2.9639    2.9670 C   0  0  0  0  0  0  0  0  0  0  0  0
    2.5045    2.2658    1.6714 C   0  0  0  0  0  0  0  0  0  0  0  0
   -1.2165   -4.1225    2.7426 H   0  0  0  0  0  0  0  0  0  0  0  0
   -1.7203   -5.0866    0.5101 H   0  0  0  0  0  0  0  0  0  0  0  0
   -2.1382   -3.5885   -1.3994 H   0  0  0  0  0  0  0  0  0  0  0  0
   -1.0891   -1.7073    3.0441 H   0  0  0  0  0  0  0  0  0  0  0  0
   -2.6077    1.6279   -3.0905 H   0  0  0  0  0  0  0  0  0  0  0  0
   -2.5680    3.9973   -2.4423 H   0  0  0  0  0  0  0  0  0  0  0  0
   -2.0676    4.6186   -0.0863 H   0  0  0  0  0  0  0  0  0  0  0  0
   -1.6356    2.8835    1.5792 H   0  0  0  0  0  0  0  0  0  0  0  0
   -0.2306    0.1891    2.9875 H   0  0  0  0  0  0  0  0  0  0  0  0
   -0.1337    1.6720    2.1426 H   0  0  0  0  0  0  0  0  0  0  0  0
    1.3451   -0.8963    1.4275 H   0  0  0  0  0  0  0  0  0  0  0  0
    1.1940    0.3855    0.2698 H   0  0  0  0  0  0  0  0  0  0  0  0
    3.6806    0.4829    3.5431 H   0  0  0  0  0  0  0  0  0  0  0  0
    2.1062   -0.2741    3.7291 H   0  0  0  0  0  0  0  0  0  0  0  0
    2.8022    2.1623    4.8689 H   0  0  0  0  0  0  0  0  0  0  0  0
    1.1350    1.7591    4.4541 H   0  0  0  0  0  0  0  0  0  0  0  0
    2.8069    3.7770    3.2080 H   0  0  0  0  0  0  0  0  0  0  0  0
    1.1145    3.4026    2.8902 H   0  0  0  0  0  0  0  0  0  0  0  0
    1.8834    2.6034    0.8349 H   0  0  0  0  0  0  0  0  0  0  0  0
    3.5363    2.5227    1.4173 H   0  0  0  0  0  0  0  0  0  0  0  0
  2  1  2  0  0  0  0
  3  2  1  0  0  0  0
  4  3  2  0  0  0  0
  5  4  1  0  0  0  0
  6  5  2  0  0  0  0
  6  1  1  0  0  0  0
  7  5  1  0  0  0  0
  8  7  1  0  0  0  0
  9  8  2  0  0  0  0
 10  9  1  0  0  0  0
 10  4  1  0  0  0  0
 11  9  1  0  0  0  0
 12 11  2  0  0  0  0
 13 12  1  0  0  0  0
 14 13  2  0  0  0  0
 14  8  1  0  0  0  0
 15  7  1  0  0  0  0
 16 15  1  0  0  0  0
 17 16  1  0  0  0  0
 18 17  1  0  0  0  0
 19 18  1  0  0  0  0
 20 19  1  0  0  0  0
 21 20  1  0  0  0  0
 21 17  1  0  0  0  0
  1 22  1  0  0  0  0
  2 23  1  0  0  0  0
  3 24  1  0  0  0  0
  6 25  1  0  0  0  0
 11 26  1  0  0  0  0
 12 27  1  0  0  0  0
 13 28  1  0  0  0  0
 14 29  1  0  0  0  0
 15 30  1  0  0  0  0
 15 31  1  0  0  0  0
 16 32  1  0  0  0  0
 16 33  1  0  0  0  0
 18 34  1  0  0  0  0
 18 35  1  0  0  0  0
 19 36  1  0  0  0  0
 19 37  1  0  0  0  0
 20 38  1  0  0  0  0
 20 39  1  0  0  0  0
 21 40  1  0  0  0  0
 21 41  1  0  0  0  0
M  END
>  <energy>
101.62989814079199

$$$$
