C1(=O)C(=O)c2c(c3c1cc(cc3C(=O)O)C(=O)O)[nH]c(c2)C(=O)O
                    3D

 31 33  0  0  0  0  0  0  0  0999 V2000
   -0.9966   -2.3981   -0.7249 C   0  0  0  0  0  0  0  0  0  0  0  0
   -1.8791   -3.2308   -0.8838 O   0  0  0  0  0  0  0  0  0  0  0  0
    0.4791   -2.8063   -0.8102 C   0  0  0  0  0  0  0  0  0  0  0  0
    0.7964   -3.9605   -1.0629 O   0  0  0  0  0  0  0  0  0  0  0  0
    1.4577   -1.7638   -0.5847 C   0  0  0  0  0  0  0  0  0  0  0  0
    1.0689   -0.4664   -0.3117 C   0  0  0  0  0  0  0  0  0  0  0  0
   -0.3204    0.0035   -0.2148 C   0  0  0  0  0  0  0  0  0  0  0  0
   -1.3320   -0.9678   -0.4357 C   0  0  0  0  0  0  0  0  0  0  0  0
   -2.6943   -0.6288   -0.3731 C   0  0  0  0  0  0  0  0  0  0  0  0
   -3.0842    0.6771   -0.0733 C   0  0  0  0  0  0  0  0  0  0  0  0
   -2.1067    1.6402    0.1843 C   0  0  0  0  0  0  0  0  0  0  0  0
   -0.7368    1.3142    0.1057 C   0  0  0  0  0  0  0  0  0  0  0  0
    0.1661    2.4343    0.4341 C   0  0  0  0  0  0  0  0  0  0  0  0
    0.0978    3.1247    1.4310 O   0  0  0  0  0  0  0  0  0  0  0  0
    1.0448    2.6844   -0.5504 O   0  0  0  0  0  0  0  0  0  0  0  0
   -4.5342    0.9878   -0.0459 C   0  0  0  0  0  0  0  0  0  0  0  0
   -5.4340    0.1958   -0.2486 O   0  0  0  0  0  0  0  0  0  0  0  0
   -4.7830    2.2801    0.2202 O   0  0  0  0  0  0  0  0  0  0  0  0
    2.2257    0.2616   -0.2041 N   0  0  0  0  0  0  0  0  0  0  0  0
    3.3431   -0.5366   -0.3638 C   0  0  0  0  0  0  0  0  0  0  0  0
    2.8753   -1.8169   -0.6030 C   0  0  0  0  0  0  0  0  0  0  0  0
    4.6622    0.0461   -0.2787 C   0  0  0  0  0  0  0  0  0  0  0  0
    4.8681    1.2321   -0.0684 O   0  0  0  0  0  0  0  0  0  0  0  0
    5.6591   -0.8471   -0.4560 O   0  0  0  0  0  0  0  0  0  0  0  0
   -3.4557   -1.3905   -0.5539 H   0  0  0  0  0  0  0  0  0  0  0  0
   -2.4029    2.6561    0.4455 H   0  0  0  0  0  0  0  0  0  0  0  0
    1.4934    3.5206   -0.2870 H   0  0  0  0  0  0  0  0  0  0  0  0
   -5.7619    2.3479    0.1985 H   0  0  0  0  0  0  0  0  0  0  0  0
    2.2885    1.2639   -0.0681 H   0  0  0  0  0  0  0  0  0  0  0  0
    3.4564   -2.7125   -0.7924 H   0  0  0  0  0  0  0  0  0  0  0  0
    5.3550   -1.7585   -0.6049 H   0  0  0  0  0  0  0  0  0  0  0  0
  2  1  2  0  0  0  0
  3  1  1  0  0  0  0
  4  3  2  0  0  0  0
  5  3  1  0  0  0  0
  6  5  2  0  0  0  0
  7  6  1  0  0  0  0
  8  7  2  0  0  0  0
  8  1  1  0  0  0  0
  9  8  1  0  0  0  0
 10  9  2  0  0  0  0
 11 10  1  0  0  0  0
 12 11  2  0  0  0  0
 12  7  1  0  0  0  0
 13 12  1  0  0  0  0
 14 13  2  0  0  0  0
 15 13  1  0  0  0  0
 16 10  1  0  0  0  0
 17 16  2  0  0  0  0
 18 16  1  0  0  0  0
 19  6  1  0  0  0  0
 20 19  1  0  0  0  0
 21 20  2  0  0  0  0
 21  5  1  0  0  0  0
 22 20  1  0  0  0  0
 23 22  2  0  0  0  0
 24 22  1  0  0  0  0
  9 25  1  0  0  0  0
 11 26  1  0  0  0  0
 15 27  1  0  0  0  0
 18 28  1  0  0  0  0
 19 29  1  0  0  0  0
 21 30  1  0  0  0  0
 24 31  1  0  0  0  0
M  END
>  <energy>
32.898858347786074

$$$$
C1(=O)C(=O)c2c(c3c1cc(cc3C(=O)O)C(=O)O)[nH]c(c2)C(=O)O
                    3D

 31 33  0  0  0  0  0  0  0  0999 V2000
   -0.9812   -2.3814   -0.7502 C   0  0  0  0  0  0  0  0  0  0  0  0
   -1.8612   -3.2156   -0.9166 O   0  0  0  0  0  0  0  0  0  0  0  0
    0.4922   -2.7668   -0.9081 C   0  0  0  0  0  0  0  0  0  0  0  0
    0.8050   -3.8979   -1.2526 O   0  0  0  0  0  0  0  0  0  0  0  0
    1.4649   -1.7322   -0.6320 C   0  0  0  0  0  0  0  0  0  0  0  0
    1.0754   -0.4465   -0.2917 C   0  0  0  0  0  0  0  0  0  0  0  0
   -0.3199    0.0195   -0.1909 C   0  0  0  0  0  0  0  0  0  0  0  0
   -1.3251   -0.9646   -0.4086 C   0  0  0  0  0  0  0  0  0  0  0  0
   -2.6919   -0.6458   -0.3361 C   0  0  0  0  0  0  0  0  0  0  0  0
   -3.0884    0.6610   -0.0746 C   0  0  0  0  0  0  0  0  0  0  0  0
   -2.1267    1.6475    0.1387 C   0  0  0  0  0  0  0  0  0  0  0  0
   -0.7496    1.3425    0.0696 C   0  0  0  0  0  0  0  0  0  0  0  0
    0.1730    2.4833    0.2951 C   0  0  0  0  0  0  0  0  0  0  0  0
    1.2459    2.4597    0.8629 O   0  0  0  0  0  0  0  0  0  0  0  0
   -0.3071    3.6154   -0.2518 O   0  0  0  0  0  0  0  0  0  0  0  0
   -4.5326    0.9669    0.0149 C   0  0  0  0  0  0  0  0  0  0  0  0
   -5.3254    0.2348    0.5767 O   0  0  0  0  0  0  0  0  0  0  0  0
   -4.8714    2.1140   -0.6064 O   0  0  0  0  0  0  0  0  0  0  0  0
    2.2372    0.2476   -0.0407 N   0  0  0  0  0  0  0  0  0  0  0  0
    3.3463   -0.5379   -0.2754 C   0  0  0  0  0  0  0  0  0  0  0  0
    2.8785   -1.7852   -0.6439 C   0  0  0  0  0  0  0  0  0  0  0  0
    4.6854   -0.0453   -0.1192 C   0  0  0  0  0  0  0  0  0  0  0  0
    5.0189    1.0846    0.1992 O   0  0  0  0  0  0  0  0  0  0  0  0
    5.6008   -0.9988   -0.3770 O   0  0  0  0  0  0  0  0  0  0  0  0
   -3.4492   -1.4167   -0.4884 H   0  0  0  0  0  0  0  0  0  0  0  0
   -2.4456    2.6586    0.3927 H   0  0  0  0  0  0  0  0  0  0  0  0
    0.3739    4.2975   -0.0597 H   0  0  0  0  0  0  0  0  0  0  0  0
   -4.1784    2.5225   -1.1580 H   0  0  0  0  0  0  0  0  0  0  0  0
    2.2989    1.2041    0.3012 H   0  0  0  0  0  0  0  0  0  0  0  0
    3.4920   -2.6467   -0.8842 H   0  0  0  0  0  0  0  0  0  0  0  0
    6.4554   -0.5446   -0.2339 H   0  0  0  0  0  0  0  0  0  0  0  0
  2  1  2  0  0  0  0
  3  1  1  0  0  0  0
  4  3  2  0  0  0  0
  5  3  1  0  0  0  0
  6  5  2  0  0  0  0
  7  6  1  0  0  0  0
  8  7  2  0  0  0  0
  8  1  1  0  0  0  0
  9  8  1  0  0  0  0
 10  9  2  0  0  0  0
 11 10  1  0  0  0  0
 12 11  2  0  0  0  0
 12  7  1  0  0  0  0
 13 12  1  0  0  0  0
 14 13  2  0  0  0  0
 15 13  1  0  0  0  0
 16 10  1  0  0  0  0
 17 16  2  0  0  0  0
 18 16  1  0  0  0  0
 19  6  1  0  0  0  0
 20 19  1  0  0  0  0
 21 20  2  0  0  0  0
 21  5  1  0  0  0  0
 22 20  1  0  0  0  0
 23 22  2  0  0  0  0
 24 22  1  0  0  0  0
  9 25  1  0  0  0  0
 11 26  1  0  0  0  0
 15 27  1  0  0  0  0
 18 28  1  0  0  0  0
 19 29  1  0  0  0  0
 21 30  1  0  0  0  0
 24 31  1  0  0  0  0
M  END
>  <energy>
35.191671927110171

$$$$
