S(C)C
                    3D

  9  8  0  0  0  0  0  0  0  0999 V2000
    0.1511   -1.1810   -0.1909 S   0  0  0  0  0  0  0  0  0  0  0  0
   -1.3516   -0.1757   -0.1494 C   0  0  0  0  0  0  0  0  0  0  0  0
    1.3584    0.1243    0.1398 C   0  0  0  0  0  0  0  0  0  0  0  0
   -1.3090    0.6055   -0.9127 H   0  0  0  0  0  0  0  0  0  0  0  0
   -2.2168   -0.8127   -0.3522 H   0  0  0  0  0  0  0  0  0  0  0  0
   -1.4785    0.2787    0.8366 H   0  0  0  0  0  0  0  0  0  0  0  0
    2.3609   -0.3111    0.1669 H   0  0  0  0  0  0  0  0  0  0  0  0
    1.1573    0.5939    1.1061 H   0  0  0  0  0  0  0  0  0  0  0  0
    1.3288    0.8791   -0.6503 H   0  0  0  0  0  0  0  0  0  0  0  0
  2  1  1  0  0  0  0
  3  1  1  0  0  0  0
  2  4  1  0  0  0  0
  2  5  1  0  0  0  0
  2  6  1  0  0  0  0
  3  7  1  0  0  0  0
  3  8  1  0  0  0  0
  3  9  1  0  0  0  0
M  END
>  <energy>
3.231817238016728

$$$$
