C1=CN2C(=C(C1)C)C1=C(CC=CN1CC2)C
                    3D

 34 36  0  0  0  0  0  0  0  0999 V2000
   -3.1943   -1.0116    1.2868 C   0  0  0  0  0  0  0  0  0  0  0  0
   -2.0588   -1.3617    1.8962 C   0  0  0  0  0  0  0  0  0  0  0  0
   -0.7960   -1.0980    1.3807 N   0  0  0  0  0  0  0  0  0  0  0  0
   -0.6598   -0.2776    0.2292 C   0  0  0  0  0  0  0  0  0  0  0  0
   -1.7533   -0.0069   -0.5371 C   0  0  0  0  0  0  0  0  0  0  0  0
   -3.1538   -0.3454   -0.0524 C   0  0  0  0  0  0  0  0  0  0  0  0
   -1.7483    0.5744   -1.9269 C   0  0  0  0  0  0  0  0  0  0  0  0
    0.7290    0.1478   -0.1230 C   0  0  0  0  0  0  0  0  0  0  0  0
    1.0605    1.4078   -0.5228 C   0  0  0  0  0  0  0  0  0  0  0  0
    2.4666    1.7373   -0.9964 C   0  0  0  0  0  0  0  0  0  0  0  0
    3.4170    0.5830   -0.9440 C   0  0  0  0  0  0  0  0  0  0  0  0
    3.0335   -0.5774   -0.4058 C   0  0  0  0  0  0  0  0  0  0  0  0
    1.7546   -0.8143    0.0825 N   0  0  0  0  0  0  0  0  0  0  0  0
    1.6480   -1.6407    1.3068 C   0  0  0  0  0  0  0  0  0  0  0  0
    0.2350   -2.1444    1.5661 C   0  0  0  0  0  0  0  0  0  0  0  0
    0.1609    2.6161   -0.5007 C   0  0  0  0  0  0  0  0  0  0  0  0
   -4.1566   -1.2495    1.7244 H   0  0  0  0  0  0  0  0  0  0  0  0
   -2.0653   -1.9102    2.8335 H   0  0  0  0  0  0  0  0  0  0  0  0
   -3.7406    0.5794    0.0025 H   0  0  0  0  0  0  0  0  0  0  0  0
   -3.6425   -1.0070   -0.7779 H   0  0  0  0  0  0  0  0  0  0  0  0
   -2.1835    1.5783   -1.9250 H   0  0  0  0  0  0  0  0  0  0  0  0
   -2.3524   -0.0515   -2.5937 H   0  0  0  0  0  0  0  0  0  0  0  0
   -0.7545    0.6172   -2.3787 H   0  0  0  0  0  0  0  0  0  0  0  0
    2.4143    2.0972   -2.0309 H   0  0  0  0  0  0  0  0  0  0  0  0
    2.8793    2.5473   -0.3829 H   0  0  0  0  0  0  0  0  0  0  0  0
    4.4306    0.7224   -1.3010 H   0  0  0  0  0  0  0  0  0  0  0  0
    3.7280   -1.4046   -0.2915 H   0  0  0  0  0  0  0  0  0  0  0  0
    1.9743   -1.0321    2.1609 H   0  0  0  0  0  0  0  0  0  0  0  0
    2.3244   -2.5026    1.2485 H   0  0  0  0  0  0  0  0  0  0  0  0
    0.0153   -2.9692    0.8746 H   0  0  0  0  0  0  0  0  0  0  0  0
    0.1876   -2.5554    2.5824 H   0  0  0  0  0  0  0  0  0  0  0  0
    0.6659    3.4475    0.0043 H   0  0  0  0  0  0  0  0  0  0  0  0
   -0.7700    2.4561    0.0481 H   0  0  0  0  0  0  0  0  0  0  0  0
   -0.0758    2.9381   -1.5195 H   0  0  0  0  0  0  0  0  0  0  0  0
  2  1  2  0  0  0  0
  3  2  1  0  0  0  0
  4  3  1  0  0  0  0
  5  4  2  0  0  0  0
  6  5  1  0  0  0  0
  6  1  1  0  0  0  0
  7  5  1  0  0  0  0
  8  4  1  0  0  0  0
  9  8  2  0  0  0  0
 10  9  1  0  0  0  0
 11 10  1  0  0  0  0
 12 11  2  0  0  0  0
 13 12  1  0  0  0  0
 13  8  1  0  0  0  0
 14 13  1  0  0  0  0
 15 14  1  0  0  0  0
 15  3  1  0  0  0  0
 16  9  1  0  0  0  0
  1 17  1  0  0  0  0
  2 18  1  0  0  0  0
  6 19  1  0  0  0  0
  6 20  1  0  0  0  0
  7 21  1  0  0  0  0
  7 22  1  0  0  0  0
  7 23  1  0  0  0  0
 10 24  1  0  0  0  0
 10 25  1  0  0  0  0
 11 26  1  0  0  0  0
 12 27  1  0  0  0  0
 14 28  1  0  0  0  0
 14 29  1  0  0  0  0
 15 30  1  0  0  0  0
 15 31  1  0  0  0  0
 16 32  1  0  0  0  0
 16 33  1  0  0  0  0
 16 34  1  0  0  0  0
M  END
>  <energy>
47.367067755877798

$$$$
