c1(N)ccc(C)cc1
                    3D

 17 17  0  0  0  0  0  0  0  0999 V2000
    1.5681   -0.0311    0.3870 C   0  0  0  0  0  0  0  0  0  0  0  0
    2.9426    0.1090    0.6133 N   0  0  0  0  0  0  0  0  0  0  0  0
    1.1012   -0.5166   -0.8360 C   0  0  0  0  0  0  0  0  0  0  0  0
   -0.2687   -0.5520   -1.1164 C   0  0  0  0  0  0  0  0  0  0  0  0
   -1.1932   -0.0491   -0.1955 C   0  0  0  0  0  0  0  0  0  0  0  0
   -2.6640   -0.1111   -0.4806 C   0  0  0  0  0  0  0  0  0  0  0  0
   -0.7242    0.4799    1.0109 C   0  0  0  0  0  0  0  0  0  0  0  0
    0.6470    0.5115    1.2851 C   0  0  0  0  0  0  0  0  0  0  0  0
    3.5088   -0.5643    0.1071 H   0  0  0  0  0  0  0  0  0  0  0  0
    3.1901    0.1601    1.5963 H   0  0  0  0  0  0  0  0  0  0  0  0
    1.8016   -0.8773   -1.5842 H   0  0  0  0  0  0  0  0  0  0  0  0
   -0.6049   -0.9618   -2.0659 H   0  0  0  0  0  0  0  0  0  0  0  0
   -3.0754   -1.0590   -0.1202 H   0  0  0  0  0  0  0  0  0  0  0  0
   -2.8577   -0.0263   -1.5551 H   0  0  0  0  0  0  0  0  0  0  0  0
   -3.1926    0.7132    0.0096 H   0  0  0  0  0  0  0  0  0  0  0  0
   -1.4201    0.8853    1.7415 H   0  0  0  0  0  0  0  0  0  0  0  0
    0.9886    0.9626    2.2125 H   0  0  0  0  0  0  0  0  0  0  0  0
  2  1  1  0  0  0  0
  3  1  2  0  0  0  0
  4  3  1  0  0  0  0
  5  4  2  0  0  0  0
  6  5  1  0  0  0  0
  7  5  1  0  0  0  0
  8  7  2  0  0  0  0
  8  1  1  0  0  0  0
  2  9  1  0  0  0  0
  2 10  1  0  0  0  0
  3 11  1  0  0  0  0
  4 12  1  0  0  0  0
  6 13  1  0  0  0  0
  6 14  1  0  0  0  0
  6 15  1  0  0  0  0
  7 16  1  0  0  0  0
  8 17  1  0  0  0  0
M  END
>  <energy>
9.1183748824678297

$$$$
