N1(C=C[C@H](C=C1)[C@@H]1C=CN(C=C1)C(C)C)C(C)C
                    3D

 42 43  0  0  0  0  0  0  0  0999 V2000
    3.0289    0.1716    0.0512 N   0  0  0  0  0  0  0  0  0  0  0  0
    2.6159   -0.5901   -1.0412 C   0  0  0  0  0  0  0  0  0  0  0  0
    1.3587   -1.0183   -1.2155 C   0  0  0  0  0  0  0  0  0  0  0  0
    0.2740   -0.7067   -0.1968 C   0  0  0  0  0  0  0  0  0  0  0  0
    0.7563    0.2992    0.8412 C   0  0  0  0  0  0  0  0  0  0  0  0
    2.0482    0.6508    0.9164 C   0  0  0  0  0  0  0  0  0  0  0  0
   -0.3037   -1.9990    0.4773 C   0  0  0  0  0  0  0  0  0  0  0  0
    0.7467   -2.7837    1.2560 C   0  0  0  0  0  0  0  0  0  0  0  0
    1.0513   -4.0516    0.9417 C   0  0  0  0  0  0  0  0  0  0  0  0
    0.4221   -4.7712   -0.0685 N   0  0  0  0  0  0  0  0  0  0  0  0
   -0.6139   -4.1496   -0.7671 C   0  0  0  0  0  0  0  0  0  0  0  0
   -1.0048   -2.8846   -0.5484 C   0  0  0  0  0  0  0  0  0  0  0  0
    0.9056   -6.1254   -0.4142 C   0  0  0  0  0  0  0  0  0  0  0  0
    1.4966   -6.1419   -1.8214 C   0  0  0  0  0  0  0  0  0  0  0  0
   -0.1985   -7.1660   -0.2444 C   0  0  0  0  0  0  0  0  0  0  0  0
    4.4569    0.4750    0.3017 C   0  0  0  0  0  0  0  0  0  0  0  0
    5.3323   -0.7695    0.1550 C   0  0  0  0  0  0  0  0  0  0  0  0
    4.9379    1.6038   -0.6029 C   0  0  0  0  0  0  0  0  0  0  0  0
    3.3846   -0.8336   -1.7638 H   0  0  0  0  0  0  0  0  0  0  0  0
    1.0982   -1.6206   -2.0777 H   0  0  0  0  0  0  0  0  0  0  0  0
   -0.5377   -0.2074   -0.7477 H   0  0  0  0  0  0  0  0  0  0  0  0
    0.0314    0.7267    1.5236 H   0  0  0  0  0  0  0  0  0  0  0  0
    2.3974    1.3563    1.6673 H   0  0  0  0  0  0  0  0  0  0  0  0
   -1.0708   -1.6924    1.2043 H   0  0  0  0  0  0  0  0  0  0  0  0
    1.2747   -2.2866    2.0634 H   0  0  0  0  0  0  0  0  0  0  0  0
    1.8313   -4.5865    1.4817 H   0  0  0  0  0  0  0  0  0  0  0  0
   -1.0928   -4.7546   -1.5319 H   0  0  0  0  0  0  0  0  0  0  0  0
   -1.8200   -2.4555   -1.1212 H   0  0  0  0  0  0  0  0  0  0  0  0
    1.7146   -6.4158    0.2743 H   0  0  0  0  0  0  0  0  0  0  0  0
    2.2928   -5.3961   -1.9120 H   0  0  0  0  0  0  0  0  0  0  0  0
    0.7467   -5.9195   -2.5894 H   0  0  0  0  0  0  0  0  0  0  0  0
    1.9267   -7.1236   -2.0470 H   0  0  0  0  0  0  0  0  0  0  0  0
    0.1982   -8.1768   -0.3916 H   0  0  0  0  0  0  0  0  0  0  0  0
   -1.0187   -7.0253   -0.9563 H   0  0  0  0  0  0  0  0  0  0  0  0
   -0.6215   -7.1170    0.7656 H   0  0  0  0  0  0  0  0  0  0  0  0
    4.5758    0.8073    1.3443 H   0  0  0  0  0  0  0  0  0  0  0  0
    5.4308   -1.0814   -0.8882 H   0  0  0  0  0  0  0  0  0  0  0  0
    6.3408   -0.5741    0.5283 H   0  0  0  0  0  0  0  0  0  0  0  0
    4.9198   -1.6105    0.7196 H   0  0  0  0  0  0  0  0  0  0  0  0
    4.4767    2.5523   -0.3072 H   0  0  0  0  0  0  0  0  0  0  0  0
    6.0252    1.7245   -0.5296 H   0  0  0  0  0  0  0  0  0  0  0  0
    4.6804    1.4210   -1.6538 H   0  0  0  0  0  0  0  0  0  0  0  0
  2  1  1  0  0  0  0
  3  2  2  0  0  0  0
  4  3  1  0  0  0  0
  5  4  1  0  0  0  0
  6  5  2  0  0  0  0
  6  1  1  0  0  0  0
  7  4  1  0  0  0  0
  8  7  1  0  0  0  0
  9  8  2  0  0  0  0
 10  9  1  0  0  0  0
 11 10  1  0  0  0  0
 12 11  2  0  0  0  0
 12  7  1  0  0  0  0
 13 10  1  0  0  0  0
 14 13  1  0  0  0  0
 15 13  1  0  0  0  0
 16  1  1  0  0  0  0
 17 16  1  0  0  0  0
 18 16  1  0  0  0  0
  2 19  1  0  0  0  0
  3 20  1  0  0  0  0
  4 21  1  0  0  0  0
  5 22  1  0  0  0  0
  6 23  1  0  0  0  0
  7 24  1  0  0  0  0
  8 25  1  0  0  0  0
  9 26  1  0  0  0  0
 11 27  1  0  0  0  0
 12 28  1  0  0  0  0
 13 29  1  0  0  0  0
 14 30  1  0  0  0  0
 14 31  1  0  0  0  0
 14 32  1  0  0  0  0
 15 33  1  0  0  0  0
 15 34  1  0  0  0  0
 15 35  1  0  0  0  0
 16 36  1  0  0  0  0
 17 37  1  0  0  0  0
 17 38  1  0  0  0  0
 17 39  1  0  0  0  0
 18 40  1  0  0  0  0
 18 41  1  0  0  0  0
 18 42  1  0  0  0  0
M  END
>  <energy>
29.50098905259253

$$$$
N1(C=C[C@H](C=C1)[C@@H]1C=CN(C=C1)C(C)C)C(C)C
                    3D

 42 43  0  0  0  0  0  0  0  0999 V2000
   -0.1708   -5.2174   -0.3913 N   0  0  0  0  0  0  0  0  0  0  0  0
    0.3759   -4.5566   -1.4902 C   0  0  0  0  0  0  0  0  0  0  0  0
    1.1374   -3.4571   -1.4076 C   0  0  0  0  0  0  0  0  0  0  0  0
    1.4920   -2.8134   -0.0677 C   0  0  0  0  0  0  0  0  0  0  0  0
    0.8555   -3.5991    1.0785 C   0  0  0  0  0  0  0  0  0  0  0  0
    0.0950   -4.6866    0.8673 C   0  0  0  0  0  0  0  0  0  0  0  0
    1.1276   -1.2843   -0.0082 C   0  0  0  0  0  0  0  0  0  0  0  0
    1.6568   -0.4976   -1.2057 C   0  0  0  0  0  0  0  0  0  0  0  0
    2.5945    0.4564   -1.0636 C   0  0  0  0  0  0  0  0  0  0  0  0
    3.1493    0.8162    0.1589 N   0  0  0  0  0  0  0  0  0  0  0  0
    2.5751    0.2875    1.3084 C   0  0  0  0  0  0  0  0  0  0  0  0
    1.6253   -0.6631    1.2938 C   0  0  0  0  0  0  0  0  0  0  0  0
    4.3179    1.7221    0.2555 C   0  0  0  0  0  0  0  0  0  0  0  0
    3.9486    3.1440   -0.1647 C   0  0  0  0  0  0  0  0  0  0  0  0
    5.4832    1.1851   -0.5824 C   0  0  0  0  0  0  0  0  0  0  0  0
   -0.7933   -6.5548   -0.5714 C   0  0  0  0  0  0  0  0  0  0  0  0
    0.0731   -7.6448    0.0711 C   0  0  0  0  0  0  0  0  0  0  0  0
   -2.2325   -6.5937   -0.0605 C   0  0  0  0  0  0  0  0  0  0  0  0
    0.1660   -5.0122   -2.4551 H   0  0  0  0  0  0  0  0  0  0  0  0
    1.5632   -3.0367   -2.3144 H   0  0  0  0  0  0  0  0  0  0  0  0
    2.5847   -2.9130    0.0431 H   0  0  0  0  0  0  0  0  0  0  0  0
    1.0506   -3.2850    2.0967 H   0  0  0  0  0  0  0  0  0  0  0  0
   -0.3288   -5.2358    1.7017 H   0  0  0  0  0  0  0  0  0  0  0  0
    0.0341   -1.1796   -0.0269 H   0  0  0  0  0  0  0  0  0  0  0  0
    1.2618   -0.7103   -2.1940 H   0  0  0  0  0  0  0  0  0  0  0  0
    2.9631    1.0091   -1.9199 H   0  0  0  0  0  0  0  0  0  0  0  0
    2.9479    0.7014    2.2399 H   0  0  0  0  0  0  0  0  0  0  0  0
    1.2066   -1.0112    2.2306 H   0  0  0  0  0  0  0  0  0  0  0  0
    4.6699    1.7686    1.2960 H   0  0  0  0  0  0  0  0  0  0  0  0
    3.1200    3.5247    0.4378 H   0  0  0  0  0  0  0  0  0  0  0  0
    3.6475    3.1935   -1.2161 H   0  0  0  0  0  0  0  0  0  0  0  0
    4.7995    3.8211   -0.0382 H   0  0  0  0  0  0  0  0  0  0  0  0
    5.7557    0.1729   -0.2686 H   0  0  0  0  0  0  0  0  0  0  0  0
    6.3688    1.8164   -0.4669 H   0  0  0  0  0  0  0  0  0  0  0  0
    5.2347    1.1513   -1.6487 H   0  0  0  0  0  0  0  0  0  0  0  0
   -0.8394   -6.7813   -1.6455 H   0  0  0  0  0  0  0  0  0  0  0  0
   -0.2472   -8.6360   -0.2650 H   0  0  0  0  0  0  0  0  0  0  0  0
    1.1251   -7.5142   -0.2015 H   0  0  0  0  0  0  0  0  0  0  0  0
    0.0074   -7.6288    1.1631 H   0  0  0  0  0  0  0  0  0  0  0  0
   -2.8476   -5.8397   -0.5660 H   0  0  0  0  0  0  0  0  0  0  0  0
   -2.6871   -7.5760   -0.2467 H   0  0  0  0  0  0  0  0  0  0  0  0
   -2.2941   -6.4004    1.0151 H   0  0  0  0  0  0  0  0  0  0  0  0
  2  1  1  0  0  0  0
  3  2  2  0  0  0  0
  4  3  1  0  0  0  0
  5  4  1  0  0  0  0
  6  5  2  0  0  0  0
  6  1  1  0  0  0  0
  7  4  1  0  0  0  0
  8  7  1  0  0  0  0
  9  8  2  0  0  0  0
 10  9  1  0  0  0  0
 11 10  1  0  0  0  0
 12 11  2  0  0  0  0
 12  7  1  0  0  0  0
 13 10  1  0  0  0  0
 14 13  1  0  0  0  0
 15 13  1  0  0  0  0
 16  1  1  0  0  0  0
 17 16  1  0  0  0  0
 18 16  1  0  0  0  0
  2 19  1  0  0  0  0
  3 20  1  0  0  0  0
  4 21  1  0  0  0  0
  5 22  1  0  0  0  0
  6 23  1  0  0  0  0
  7 24  1  0  0  0  0
  8 25  1  0  0  0  0
  9 26  1  0  0  0  0
 11 27  1  0  0  0  0
 12 28  1  0  0  0  0
 13 29  1  0  0  0  0
 14 30  1  0  0  0  0
 14 31  1  0  0  0  0
 14 32  1  0  0  0  0
 15 33  1  0  0  0  0
 15 34  1  0  0  0  0
 15 35  1  0  0  0  0
 16 36  1  0  0  0  0
 17 37  1  0  0  0  0
 17 38  1  0  0  0  0
 17 39  1  0  0  0  0
 18 40  1  0  0  0  0
 18 41  1  0  0  0  0
 18 42  1  0  0  0  0
M  END
>  <energy>
31.278856772056209

$$$$
N1(C=C[C@H](C=C1)[C@@H]1C=CN(C=C1)C(C)C)C(C)C
                    3D

 42 43  0  0  0  0  0  0  0  0999 V2000
    3.1810    0.7566    0.1106 N   0  0  0  0  0  0  0  0  0  0  0  0
    2.9384   -0.0236    1.2414 C   0  0  0  0  0  0  0  0  0  0  0  0
    2.1725   -1.1276    1.2579 C   0  0  0  0  0  0  0  0  0  0  0  0
    1.5315   -1.6647   -0.0227 C   0  0  0  0  0  0  0  0  0  0  0  0
    1.6790   -0.6445   -1.1475 C   0  0  0  0  0  0  0  0  0  0  0  0
    2.4577    0.4380   -1.0321 C   0  0  0  0  0  0  0  0  0  0  0  0
    0.0503   -2.1937    0.1150 C   0  0  0  0  0  0  0  0  0  0  0  0
   -0.1600   -3.0917    1.3443 C   0  0  0  0  0  0  0  0  0  0  0  0
   -0.2779   -4.4220    1.2186 C   0  0  0  0  0  0  0  0  0  0  0  0
   -0.3036   -5.0845   -0.0007 N   0  0  0  0  0  0  0  0  0  0  0  0
   -0.4310   -4.2989   -1.1512 C   0  0  0  0  0  0  0  0  0  0  0  0
   -0.3369   -2.9599   -1.1517 C   0  0  0  0  0  0  0  0  0  0  0  0
   -0.0389   -6.5461   -0.0690 C   0  0  0  0  0  0  0  0  0  0  0  0
    1.4243   -6.7610   -0.4650 C   0  0  0  0  0  0  0  0  0  0  0  0
   -0.9636   -7.2829   -1.0381 C   0  0  0  0  0  0  0  0  0  0  0  0
    4.4249    1.5717    0.0498 C   0  0  0  0  0  0  0  0  0  0  0  0
    5.6041    0.6511   -0.2909 C   0  0  0  0  0  0  0  0  0  0  0  0
    4.3585    2.7266   -0.9483 C   0  0  0  0  0  0  0  0  0  0  0  0
    3.4627    0.3127    2.1309 H   0  0  0  0  0  0  0  0  0  0  0  0
    2.0983   -1.6995    2.1784 H   0  0  0  0  0  0  0  0  0  0  0  0
    2.1593   -2.5163   -0.3326 H   0  0  0  0  0  0  0  0  0  0  0  0
    1.1808   -0.8396   -2.0875 H   0  0  0  0  0  0  0  0  0  0  0  0
    2.5543    1.1193   -1.8622 H   0  0  0  0  0  0  0  0  0  0  0  0
   -0.6434   -1.3489    0.2191 H   0  0  0  0  0  0  0  0  0  0  0  0
   -0.2178   -2.6249    2.3218 H   0  0  0  0  0  0  0  0  0  0  0  0
   -0.3848   -5.0723    2.0855 H   0  0  0  0  0  0  0  0  0  0  0  0
   -0.5992   -4.8389   -2.0716 H   0  0  0  0  0  0  0  0  0  0  0  0
   -0.4687   -2.4108   -2.0806 H   0  0  0  0  0  0  0  0  0  0  0  0
   -0.1860   -7.0023    0.9216 H   0  0  0  0  0  0  0  0  0  0  0  0
    1.6338   -6.2993   -1.4385 H   0  0  0  0  0  0  0  0  0  0  0  0
    1.6834   -7.8240   -0.5372 H   0  0  0  0  0  0  0  0  0  0  0  0
    2.0927   -6.2941    0.2643 H   0  0  0  0  0  0  0  0  0  0  0  0
   -0.7843   -8.3656   -0.9755 H   0  0  0  0  0  0  0  0  0  0  0  0
   -0.7639   -6.9857   -2.0770 H   0  0  0  0  0  0  0  0  0  0  0  0
   -2.0177   -7.0906   -0.8077 H   0  0  0  0  0  0  0  0  0  0  0  0
    4.6055    2.0182    1.0403 H   0  0  0  0  0  0  0  0  0  0  0  0
    5.6929   -0.1571    0.4458 H   0  0  0  0  0  0  0  0  0  0  0  0
    5.4724    0.1906   -1.2751 H   0  0  0  0  0  0  0  0  0  0  0  0
    6.5490    1.2071   -0.3011 H   0  0  0  0  0  0  0  0  0  0  0  0
    3.4987    3.3698   -0.7589 H   0  0  0  0  0  0  0  0  0  0  0  0
    5.2638    3.3397   -0.8997 H   0  0  0  0  0  0  0  0  0  0  0  0
    4.2957    2.3687   -1.9796 H   0  0  0  0  0  0  0  0  0  0  0  0
  2  1  1  0  0  0  0
  3  2  2  0  0  0  0
  4  3  1  0  0  0  0
  5  4  1  0  0  0  0
  6  5  2  0  0  0  0
  6  1  1  0  0  0  0
  7  4  1  0  0  0  0
  8  7  1  0  0  0  0
  9  8  2  0  0  0  0
 10  9  1  0  0  0  0
 11 10  1  0  0  0  0
 12 11  2  0  0  0  0
 12  7  1  0  0  0  0
 13 10  1  0  0  0  0
 14 13  1  0  0  0  0
 15 13  1  0  0  0  0
 16  1  1  0  0  0  0
 17 16  1  0  0  0  0
 18 16  1  0  0  0  0
  2 19  1  0  0  0  0
  3 20  1  0  0  0  0
  4 21  1  0  0  0  0
  5 22  1  0  0  0  0
  6 23  1  0  0  0  0
  7 24  1  0  0  0  0
  8 25  1  0  0  0  0
  9 26  1  0  0  0  0
 11 27  1  0  0  0  0
 12 28  1  0  0  0  0
 13 29  1  0  0  0  0
 14 30  1  0  0  0  0
 14 31  1  0  0  0  0
 14 32  1  0  0  0  0
 15 33  1  0  0  0  0
 15 34  1  0  0  0  0
 15 35  1  0  0  0  0
 16 36  1  0  0  0  0
 17 37  1  0  0  0  0
 17 38  1  0  0  0  0
 17 39  1  0  0  0  0
 18 40  1  0  0  0  0
 18 41  1  0  0  0  0
 18 42  1  0  0  0  0
M  END
>  <energy>
39.242264667864333

$$$$
N1(C=C[C@H](C=C1)[C@@H]1C=CN(C=C1)C(C)C)C(C)C
                    3D

 42 43  0  0  0  0  0  0  0  0999 V2000
    2.9114   -0.1464    0.0029 N   0  0  0  0  0  0  0  0  0  0  0  0
    2.0472    0.1389   -1.0535 C   0  0  0  0  0  0  0  0  0  0  0  0
    0.7081    0.0879   -0.9496 C   0  0  0  0  0  0  0  0  0  0  0  0
    0.0460   -0.4471    0.3154 C   0  0  0  0  0  0  0  0  0  0  0  0
    1.0330   -0.4376    1.4762 C   0  0  0  0  0  0  0  0  0  0  0  0
    2.3532   -0.3262    1.2622 C   0  0  0  0  0  0  0  0  0  0  0  0
   -0.6740   -1.8416    0.0739 C   0  0  0  0  0  0  0  0  0  0  0  0
   -0.5996   -2.7870    1.2658 C   0  0  0  0  0  0  0  0  0  0  0  0
    0.0791   -3.9462    1.1939 C   0  0  0  0  0  0  0  0  0  0  0  0
    0.6951   -4.4198    0.0336 N   0  0  0  0  0  0  0  0  0  0  0  0
    0.4470   -3.7189   -1.1416 C   0  0  0  0  0  0  0  0  0  0  0  0
   -0.2118   -2.5580   -1.1913 C   0  0  0  0  0  0  0  0  0  0  0  0
    1.3924   -5.7281    0.0309 C   0  0  0  0  0  0  0  0  0  0  0  0
    2.6712   -5.7121   -0.8104 C   0  0  0  0  0  0  0  0  0  0  0  0
    0.4410   -6.8300   -0.4379 C   0  0  0  0  0  0  0  0  0  0  0  0
    4.3589   -0.3780   -0.1961 C   0  0  0  0  0  0  0  0  0  0  0  0
    4.5854   -1.6944   -0.9375 C   0  0  0  0  0  0  0  0  0  0  0  0
    5.0270    0.7873   -0.9166 C   0  0  0  0  0  0  0  0  0  0  0  0
    2.5222    0.4043   -1.9898 H   0  0  0  0  0  0  0  0  0  0  0  0
    0.0759    0.3417   -1.7928 H   0  0  0  0  0  0  0  0  0  0  0  0
   -0.7294    0.2820    0.5863 H   0  0  0  0  0  0  0  0  0  0  0  0
    0.6607   -0.5444    2.4857 H   0  0  0  0  0  0  0  0  0  0  0  0
    3.0598   -0.3701    2.0867 H   0  0  0  0  0  0  0  0  0  0  0  0
   -1.7417   -1.6284   -0.0889 H   0  0  0  0  0  0  0  0  0  0  0  0
   -1.0905   -2.4955    2.1872 H   0  0  0  0  0  0  0  0  0  0  0  0
    0.1704   -4.6019    2.0566 H   0  0  0  0  0  0  0  0  0  0  0  0
    0.8133   -4.1830   -2.0519 H   0  0  0  0  0  0  0  0  0  0  0  0
   -0.4096   -2.0903   -2.1522 H   0  0  0  0  0  0  0  0  0  0  0  0
    1.7047   -5.9648    1.0551 H   0  0  0  0  0  0  0  0  0  0  0  0
    3.2564   -6.6194   -0.6256 H   0  0  0  0  0  0  0  0  0  0  0  0
    3.2957   -4.8470   -0.5666 H   0  0  0  0  0  0  0  0  0  0  0  0
    2.4618   -5.6860   -1.8839 H   0  0  0  0  0  0  0  0  0  0  0  0
    0.9530   -7.7958   -0.4872 H   0  0  0  0  0  0  0  0  0  0  0  0
    0.0406   -6.6073   -1.4320 H   0  0  0  0  0  0  0  0  0  0  0  0
   -0.4028   -6.9307    0.2531 H   0  0  0  0  0  0  0  0  0  0  0  0
    4.8482   -0.4659    0.7825 H   0  0  0  0  0  0  0  0  0  0  0  0
    5.6498   -1.8552   -1.1377 H   0  0  0  0  0  0  0  0  0  0  0  0
    4.2200   -2.5434   -0.3486 H   0  0  0  0  0  0  0  0  0  0  0  0
    4.0582   -1.7103   -1.8982 H   0  0  0  0  0  0  0  0  0  0  0  0
    4.7619    1.7404   -0.4466 H   0  0  0  0  0  0  0  0  0  0  0  0
    6.1163    0.6746   -0.8828 H   0  0  0  0  0  0  0  0  0  0  0  0
    4.7353    0.8331   -1.9717 H   0  0  0  0  0  0  0  0  0  0  0  0
  2  1  1  0  0  0  0
  3  2  2  0  0  0  0
  4  3  1  0  0  0  0
  5  4  1  0  0  0  0
  6  5  2  0  0  0  0
  6  1  1  0  0  0  0
  7  4  1  0  0  0  0
  8  7  1  0  0  0  0
  9  8  2  0  0  0  0
 10  9  1  0  0  0  0
 11 10  1  0  0  0  0
 12 11  2  0  0  0  0
 12  7  1  0  0  0  0
 13 10  1  0  0  0  0
 14 13  1  0  0  0  0
 15 13  1  0  0  0  0
 16  1  1  0  0  0  0
 17 16  1  0  0  0  0
 18 16  1  0  0  0  0
  2 19  1  0  0  0  0
  3 20  1  0  0  0  0
  4 21  1  0  0  0  0
  5 22  1  0  0  0  0
  6 23  1  0  0  0  0
  7 24  1  0  0  0  0
  8 25  1  0  0  0  0
  9 26  1  0  0  0  0
 11 27  1  0  0  0  0
 12 28  1  0  0  0  0
 13 29  1  0  0  0  0
 14 30  1  0  0  0  0
 14 31  1  0  0  0  0
 14 32  1  0  0  0  0
 15 33  1  0  0  0  0
 15 34  1  0  0  0  0
 15 35  1  0  0  0  0
 16 36  1  0  0  0  0
 17 37  1  0  0  0  0
 17 38  1  0  0  0  0
 17 39  1  0  0  0  0
 18 40  1  0  0  0  0
 18 41  1  0  0  0  0
 18 42  1  0  0  0  0
M  END
>  <energy>
40.098739225325367

$$$$
