C1=CN2C(=CC1)C1=CC=C(CN1CC2)OC
                    3D

 32 34  0  0  0  0  0  0  0  0999 V2000
   -4.2518    0.1610    0.6676 C   0  0  0  0  0  0  0  0  0  0  0  0
   -3.5766   -0.6660   -0.1396 C   0  0  0  0  0  0  0  0  0  0  0  0
   -2.1944   -0.6532   -0.2612 N   0  0  0  0  0  0  0  0  0  0  0  0
   -1.4214    0.3064    0.4397 C   0  0  0  0  0  0  0  0  0  0  0  0
   -2.0338    1.1615    1.2906 C   0  0  0  0  0  0  0  0  0  0  0  0
   -3.5252    1.1779    1.4960 C   0  0  0  0  0  0  0  0  0  0  0  0
    0.0596    0.2951    0.2564 C   0  0  0  0  0  0  0  0  0  0  0  0
    0.8319    1.3749    0.5004 C   0  0  0  0  0  0  0  0  0  0  0  0
    2.2601    1.3394    0.2870 C   0  0  0  0  0  0  0  0  0  0  0  0
    2.8792    0.1972   -0.0458 C   0  0  0  0  0  0  0  0  0  0  0  0
    2.1058   -1.0905   -0.2574 C   0  0  0  0  0  0  0  0  0  0  0  0
    0.6536   -0.8755   -0.2535 N   0  0  0  0  0  0  0  0  0  0  0  0
   -0.1767   -2.0450   -0.5519 C   0  0  0  0  0  0  0  0  0  0  0  0
   -1.5127   -1.5974   -1.1640 C   0  0  0  0  0  0  0  0  0  0  0  0
    4.2503    0.2205   -0.2644 O   0  0  0  0  0  0  0  0  0  0  0  0
    4.9362   -0.9565    0.1509 C   0  0  0  0  0  0  0  0  0  0  0  0
   -5.3322    0.1120    0.7307 H   0  0  0  0  0  0  0  0  0  0  0  0
   -4.0906   -1.4028   -0.7487 H   0  0  0  0  0  0  0  0  0  0  0  0
   -1.4754    1.8776    1.8807 H   0  0  0  0  0  0  0  0  0  0  0  0
   -3.9042    2.1748    1.2448 H   0  0  0  0  0  0  0  0  0  0  0  0
   -3.7405    0.9979    2.5549 H   0  0  0  0  0  0  0  0  0  0  0  0
    0.4234    2.3189    0.8411 H   0  0  0  0  0  0  0  0  0  0  0  0
    2.8184    2.2615    0.4083 H   0  0  0  0  0  0  0  0  0  0  0  0
    2.3985   -1.5249   -1.2212 H   0  0  0  0  0  0  0  0  0  0  0  0
    2.3577   -1.8039    0.5345 H   0  0  0  0  0  0  0  0  0  0  0  0
   -0.3542   -2.6065    0.3737 H   0  0  0  0  0  0  0  0  0  0  0  0
    0.3329   -2.7145   -1.2535 H   0  0  0  0  0  0  0  0  0  0  0  0
   -2.1306   -2.4847   -1.3470 H   0  0  0  0  0  0  0  0  0  0  0  0
   -1.3444   -1.1041   -2.1290 H   0  0  0  0  0  0  0  0  0  0  0  0
    4.6795   -1.2218    1.1823 H   0  0  0  0  0  0  0  0  0  0  0  0
    6.0110   -0.7549    0.1130 H   0  0  0  0  0  0  0  0  0  0  0  0
    4.7280   -1.7878   -0.5307 H   0  0  0  0  0  0  0  0  0  0  0  0
  2  1  2  0  0  0  0
  3  2  1  0  0  0  0
  4  3  1  0  0  0  0
  5  4  2  0  0  0  0
  6  5  1  0  0  0  0
  6  1  1  0  0  0  0
  7  4  1  0  0  0  0
  8  7  2  0  0  0  0
  9  8  1  0  0  0  0
 10  9  2  0  0  0  0
 11 10  1  0  0  0  0
 12 11  1  0  0  0  0
 12  7  1  0  0  0  0
 13 12  1  0  0  0  0
 14 13  1  0  0  0  0
 14  3  1  0  0  0  0
 15 10  1  0  0  0  0
 16 15  1  0  0  0  0
  1 17  1  0  0  0  0
  2 18  1  0  0  0  0
  5 19  1  0  0  0  0
  6 20  1  0  0  0  0
  6 21  1  0  0  0  0
  8 22  1  0  0  0  0
  9 23  1  0  0  0  0
 11 24  1  0  0  0  0
 11 25  1  0  0  0  0
 13 26  1  0  0  0  0
 13 27  1  0  0  0  0
 14 28  1  0  0  0  0
 14 29  1  0  0  0  0
 16 30  1  0  0  0  0
 16 31  1  0  0  0  0
 16 32  1  0  0  0  0
M  END
>  <energy>
64.292122335918492

$$$$
