c1ccc2c(c1)C(=O)c1c(C2=O)ccc(c1)S(=O)(=O)[O]
                    3D

 27 29  0  0  0  0  0  0  0  0999 V2000
   -4.0892   -1.1624   -0.9792 C   0  0  0  0  0  0  0  0  0  0  0  0
   -4.4020   -0.4478    0.1770 C   0  0  0  0  0  0  0  0  0  0  0  0
   -3.3882    0.1647    0.9156 C   0  0  0  0  0  0  0  0  0  0  0  0
   -2.0557    0.0614    0.4963 C   0  0  0  0  0  0  0  0  0  0  0  0
   -1.7428   -0.6535   -0.6590 C   0  0  0  0  0  0  0  0  0  0  0  0
   -2.7618   -1.2667   -1.3991 C   0  0  0  0  0  0  0  0  0  0  0  0
   -0.3413   -0.7703   -1.1084 C   0  0  0  0  0  0  0  0  0  0  0  0
   -0.0600   -1.3984   -2.1218 O   0  0  0  0  0  0  0  0  0  0  0  0
    0.7267   -0.1214   -0.3216 C   0  0  0  0  0  0  0  0  0  0  0  0
    0.4127    0.5947    0.8346 C   0  0  0  0  0  0  0  0  0  0  0  0
   -0.9897    0.7121    1.2838 C   0  0  0  0  0  0  0  0  0  0  0  0
   -1.2607    1.3430    2.2985 O   0  0  0  0  0  0  0  0  0  0  0  0
    1.4307    1.2106    1.5783 C   0  0  0  0  0  0  0  0  0  0  0  0
    2.7616    1.1083    1.1665 C   0  0  0  0  0  0  0  0  0  0  0  0
    3.0700    0.3813    0.0097 C   0  0  0  0  0  0  0  0  0  0  0  0
    2.0592   -0.2293   -0.7438 C   0  0  0  0  0  0  0  0  0  0  0  0
    4.7999    0.2673   -0.5482 S   0  0  0  0  0  0  0  0  0  0  0  0
    4.6650    0.1894   -1.9992 O   0  0  0  0  0  0  0  0  0  0  0  0
    5.3793    1.5101   -0.0463 O   0  0  0  0  0  0  0  0  0  0  0  0
    5.2368   -0.9533    0.1206 O   0  0  0  0  0  0  0  0  0  0  0  0
   -4.8797   -1.6401   -1.5544 H   0  0  0  0  0  0  0  0  0  0  0  0
   -5.4364   -0.3674    0.5042 H   0  0  0  0  0  0  0  0  0  0  0  0
   -3.6408    0.7208    1.8170 H   0  0  0  0  0  0  0  0  0  0  0  0
   -2.5263   -1.8271   -2.3025 H   0  0  0  0  0  0  0  0  0  0  0  0
    1.1883    1.7726    2.4801 H   0  0  0  0  0  0  0  0  0  0  0  0
    3.5431    1.5919    1.7507 H   0  0  0  0  0  0  0  0  0  0  0  0
    2.3020   -0.7867   -1.6484 H   0  0  0  0  0  0  0  0  0  0  0  0
  2  1  2  0  0  0  0
  3  2  1  0  0  0  0
  4  3  2  0  0  0  0
  5  4  1  0  0  0  0
  6  5  2  0  0  0  0
  6  1  1  0  0  0  0
  7  5  1  0  0  0  0
  8  7  2  0  0  0  0
  9  7  1  0  0  0  0
 10  9  2  0  0  0  0
 11 10  1  0  0  0  0
 11  4  1  0  0  0  0
 12 11  2  0  0  0  0
 13 10  1  0  0  0  0
 14 13  2  0  0  0  0
 15 14  1  0  0  0  0
 16 15  2  0  0  0  0
 16  9  1  0  0  0  0
 17 15  1  0  0  0  0
 18 17  2  0  0  0  0
 19 17  2  0  0  0  0
 20 17  1  0  0  0  0
  1 21  1  0  0  0  0
  2 22  1  0  0  0  0
  3 23  1  0  0  0  0
  6 24  1  0  0  0  0
 13 25  1  0  0  0  0
 14 26  1  0  0  0  0
 16 27  1  0  0  0  0
M  RAD  1  20   2
M  END
>  <energy>
100.93421312641306

$$$$
