c1(ccc2c(c1)C(=O)/C(=C/1\Nc3c(C1=O)cc(cc3)S(=O)(=O)[O])/N2)S(=O)(=O)[O]
                    3D

 36 39  0  0  0  0  0  0  0  0999 V2000
    3.1190   -6.1884   -2.4626 C   0  0  0  0  0  0  0  0  0  0  0  0
    3.2547   -5.4239   -3.6438 C   0  0  0  0  0  0  0  0  0  0  0  0
    2.9499   -4.0612   -3.6339 C   0  0  0  0  0  0  0  0  0  0  0  0
    2.5106   -3.5281   -2.4463 C   0  0  0  0  0  0  0  0  0  0  0  0
    2.6067   -4.2503   -1.2425 C   0  0  0  0  0  0  0  0  0  0  0  0
    2.8602   -5.5945   -1.2136 C   0  0  0  0  0  0  0  0  0  0  0  0
    1.9575   -3.4484   -0.2050 C   0  0  0  0  0  0  0  0  0  0  0  0
    2.0349   -3.5776    0.9839 O   0  0  0  0  0  0  0  0  0  0  0  0
    1.1511   -2.5088   -1.0428 C   0  0  0  0  0  0  0  0  0  0  0  0
   -0.1154   -2.2704   -0.6899 C   0  0  0  0  0  0  0  0  0  0  0  0
   -0.7560   -2.4700    0.5328 N   0  0  0  0  0  0  0  0  0  0  0  0
   -1.8126   -1.5413    0.5306 C   0  0  0  0  0  0  0  0  0  0  0  0
   -1.9936   -0.9266   -0.7201 C   0  0  0  0  0  0  0  0  0  0  0  0
   -1.0367   -1.5663   -1.6215 C   0  0  0  0  0  0  0  0  0  0  0  0
   -1.0474   -1.5976   -2.8344 O   0  0  0  0  0  0  0  0  0  0  0  0
   -2.8293    0.1410   -0.9233 C   0  0  0  0  0  0  0  0  0  0  0  0
   -3.5180    0.5645    0.2153 C   0  0  0  0  0  0  0  0  0  0  0  0
   -3.4263   -0.1048    1.4626 C   0  0  0  0  0  0  0  0  0  0  0  0
   -2.5503   -1.1704    1.6254 C   0  0  0  0  0  0  0  0  0  0  0  0
   -4.5435    2.0313    0.1411 S   0  0  0  0  0  0  0  0  0  0  0  0
   -5.4763    1.8163   -0.9538 O   0  0  0  0  0  0  0  0  0  0  0  0
   -5.1752    2.0617    1.4532 O   0  0  0  0  0  0  0  0  0  0  0  0
   -3.5909    3.1078   -0.0769 O   0  0  0  0  0  0  0  0  0  0  0  0
    1.7943   -2.3359   -2.2688 N   0  0  0  0  0  0  0  0  0  0  0  0
    2.9442   -7.9896   -2.5683 S   0  0  0  0  0  0  0  0  0  0  0  0
    3.1099   -8.1567   -4.0121 O   0  0  0  0  0  0  0  0  0  0  0  0
    4.0197   -8.5332   -1.7420 O   0  0  0  0  0  0  0  0  0  0  0  0
    1.6086   -8.1835   -2.0115 O   0  0  0  0  0  0  0  0  0  0  0  0
    3.5134   -5.9155   -4.5809 H   0  0  0  0  0  0  0  0  0  0  0  0
    2.9273   -3.4814   -4.5496 H   0  0  0  0  0  0  0  0  0  0  0  0
    2.6854   -6.1663   -0.3055 H   0  0  0  0  0  0  0  0  0  0  0  0
   -1.1259   -3.4270    0.6113 H   0  0  0  0  0  0  0  0  0  0  0  0
   -2.8811    0.6502   -1.8790 H   0  0  0  0  0  0  0  0  0  0  0  0
   -4.0136    0.2409    2.3171 H   0  0  0  0  0  0  0  0  0  0  0  0
   -2.3847   -1.6400    2.5943 H   0  0  0  0  0  0  0  0  0  0  0  0
    1.1590   -2.0763   -3.0344 H   0  0  0  0  0  0  0  0  0  0  0  0
  2  1  2  0  0  0  0
  3  2  1  0  0  0  0
  4  3  2  0  0  0  0
  5  4  1  0  0  0  0
  6  5  2  0  0  0  0
  6  1  1  0  0  0  0
  7  5  1  0  0  0  0
  8  7  2  0  0  0  0
  9  7  1  0  0  0  0
 10  9  2  0  0  0  0
 11 10  1  0  0  0  0
 12 11  1  0  0  0  0
 13 12  2  0  0  0  0
 14 13  1  0  0  0  0
 14 10  1  0  0  0  0
 15 14  2  0  0  0  0
 16 13  1  0  0  0  0
 17 16  2  0  0  0  0
 18 17  1  0  0  0  0
 19 18  2  0  0  0  0
 19 12  1  0  0  0  0
 20 17  1  0  0  0  0
 21 20  2  0  0  0  0
 22 20  2  0  0  0  0
 23 20  1  0  0  0  0
 24  9  1  0  0  0  0
 24  4  1  0  0  0  0
 25  1  1  0  0  0  0
 26 25  2  0  0  0  0
 27 25  2  0  0  0  0
 28 25  1  0  0  0  0
  2 29  1  0  0  0  0
  3 30  1  0  0  0  0
  6 31  1  0  0  0  0
 11 32  1  0  0  0  0
 16 33  1  0  0  0  0
 18 34  1  0  0  0  0
 19 35  1  0  0  0  0
 24 36  1  0  0  0  0
M  RAD  2  23   2  28   2
M  END
>  <energy>
270.58048876515306

$$$$
