c1ccc2c(c1)Nc1c(S2(=O)=O)cccc1
                    3D

 25 27  0  0  0  0  0  0  0  0999 V2000
   -3.7422    0.5679   -0.3277 C   0  0  0  0  0  0  0  0  0  0  0  0
   -3.7722   -0.7982   -0.0529 C   0  0  0  0  0  0  0  0  0  0  0  0
   -2.5800   -1.4847    0.1566 C   0  0  0  0  0  0  0  0  0  0  0  0
   -1.3675   -0.7890    0.0835 C   0  0  0  0  0  0  0  0  0  0  0  0
   -1.3068    0.5737   -0.2009 C   0  0  0  0  0  0  0  0  0  0  0  0
   -2.5200    1.2475   -0.3964 C   0  0  0  0  0  0  0  0  0  0  0  0
   -0.1010    1.2851   -0.2518 N   0  0  0  0  0  0  0  0  0  0  0  0
    1.2010    0.7904   -0.1012 C   0  0  0  0  0  0  0  0  0  0  0  0
    1.4715   -0.5436    0.1966 C   0  0  0  0  0  0  0  0  0  0  0  0
    0.1299   -1.6655    0.3541 S   0  0  0  0  0  0  0  0  0  0  0  0
    0.2560   -2.6204   -0.7331 O   0  0  0  0  0  0  0  0  0  0  0  0
    0.1132   -2.1060    1.7378 O   0  0  0  0  0  0  0  0  0  0  0  0
    2.7755   -1.0221    0.3700 C   0  0  0  0  0  0  0  0  0  0  0  0
    3.8453   -0.1404    0.2504 C   0  0  0  0  0  0  0  0  0  0  0  0
    3.6038    1.2022   -0.0355 C   0  0  0  0  0  0  0  0  0  0  0  0
    2.2926    1.6632   -0.2052 C   0  0  0  0  0  0  0  0  0  0  0  0
   -4.6725    1.1086   -0.4863 H   0  0  0  0  0  0  0  0  0  0  0  0
   -4.7221   -1.3246    0.0015 H   0  0  0  0  0  0  0  0  0  0  0  0
   -2.5918   -2.5500    0.3765 H   0  0  0  0  0  0  0  0  0  0  0  0
   -2.5302    2.3148   -0.6049 H   0  0  0  0  0  0  0  0  0  0  0  0
   -0.1718    2.2462   -0.5683 H   0  0  0  0  0  0  0  0  0  0  0  0
    2.9518   -2.0711    0.5977 H   0  0  0  0  0  0  0  0  0  0  0  0
    4.8640   -0.4970    0.3831 H   0  0  0  0  0  0  0  0  0  0  0  0
    4.4374    1.8952   -0.1242 H   0  0  0  0  0  0  0  0  0  0  0  0
    2.1363    2.7178   -0.4197 H   0  0  0  0  0  0  0  0  0  0  0  0
  2  1  2  0  0  0  0
  3  2  1  0  0  0  0
  4  3  2  0  0  0  0
  5  4  1  0  0  0  0
  6  5  2  0  0  0  0
  6  1  1  0  0  0  0
  7  5  1  0  0  0  0
  8  7  1  0  0  0  0
  9  8  2  0  0  0  0
 10  9  1  0  0  0  0
 10  4  1  0  0  0  0
 11 10  2  0  0  0  0
 12 10  2  0  0  0  0
 13  9  1  0  0  0  0
 14 13  2  0  0  0  0
 15 14  1  0  0  0  0
 16 15  2  0  0  0  0
 16  8  1  0  0  0  0
  1 17  1  0  0  0  0
  2 18  1  0  0  0  0
  3 19  1  0  0  0  0
  6 20  1  0  0  0  0
  7 21  1  0  0  0  0
 13 22  1  0  0  0  0
 14 23  1  0  0  0  0
 15 24  1  0  0  0  0
 16 25  1  0  0  0  0
M  END
>  <energy>
56.371187006878579

$$$$
