C1(=O)C(=O)C=C2C(=C1)N(C[C@H]2O)C
                    3D

 22 23  0  0  0  0  0  0  0  0999 V2000
   -1.3652    2.2654    0.8574 C   0  0  0  0  0  0  0  0  0  0  0  0
   -1.9725    3.3230    0.7670 O   0  0  0  0  0  0  0  0  0  0  0  0
   -1.1599    1.5726    2.2095 C   0  0  0  0  0  0  0  0  0  0  0  0
   -1.6416    2.0202    3.2398 O   0  0  0  0  0  0  0  0  0  0  0  0
   -0.3573    0.3318    2.2291 C   0  0  0  0  0  0  0  0  0  0  0  0
    0.1145   -0.1402    1.0728 C   0  0  0  0  0  0  0  0  0  0  0  0
   -0.1299    0.4671   -0.2235 C   0  0  0  0  0  0  0  0  0  0  0  0
   -0.8150    1.6071   -0.3484 C   0  0  0  0  0  0  0  0  0  0  0  0
    0.4456   -0.3274   -1.1994 N   0  0  0  0  0  0  0  0  0  0  0  0
    0.8112   -1.6473   -0.6482 C   0  0  0  0  0  0  0  0  0  0  0  0
    0.9620   -1.3676    0.8643 C   0  0  0  0  0  0  0  0  0  0  0  0
    2.3143   -1.0369    1.1794 O   0  0  0  0  0  0  0  0  0  0  0  0
    0.1367   -0.2678   -2.6187 C   0  0  0  0  0  0  0  0  0  0  0  0
   -0.1691   -0.1316    3.1885 H   0  0  0  0  0  0  0  0  0  0  0  0
   -1.0055    2.0902   -1.2957 H   0  0  0  0  0  0  0  0  0  0  0  0
   -0.0044   -2.3576   -0.8295 H   0  0  0  0  0  0  0  0  0  0  0  0
    1.7380   -2.0181   -1.0978 H   0  0  0  0  0  0  0  0  0  0  0  0
    0.6560   -2.2241    1.4716 H   0  0  0  0  0  0  0  0  0  0  0  0
    2.5588   -0.3060    0.5810 H   0  0  0  0  0  0  0  0  0  0  0  0
   -0.8728   -0.6457   -2.8104 H   0  0  0  0  0  0  0  0  0  0  0  0
    0.8476   -0.8719   -3.1923 H   0  0  0  0  0  0  0  0  0  0  0  0
    0.2058    0.7590   -2.9919 H   0  0  0  0  0  0  0  0  0  0  0  0
  2  1  2  0  0  0  0
  3  1  1  0  0  0  0
  4  3  2  0  0  0  0
  5  3  1  0  0  0  0
  6  5  2  0  0  0  0
  7  6  1  0  0  0  0
  8  7  2  0  0  0  0
  8  1  1  0  0  0  0
  9  7  1  0  0  0  0
 10  9  1  0  0  0  0
 11 10  1  0  0  0  0
 11  6  1  0  0  0  0
 12 11  1  0  0  0  0
 13  9  1  0  0  0  0
  5 14  1  0  0  0  0
  8 15  1  0  0  0  0
 10 16  1  0  0  0  0
 10 17  1  0  0  0  0
 11 18  1  0  0  0  0
 12 19  1  0  0  0  0
 13 20  1  0  0  0  0
 13 21  1  0  0  0  0
 13 22  1  0  0  0  0
M  END
>  <energy>
65.766010158786585

$$$$
