c1ccc2c(c1)[nH]c1c(so2)cccc1
                    3D

 24 26  0  0  0  0  0  0  0  0999 V2000
   -3.7516    0.5792   -0.0861 C   0  0  0  0  0  0  0  0  0  0  0  0
   -3.9160   -0.7993   -0.1646 C   0  0  0  0  0  0  0  0  0  0  0  0
   -2.7942   -1.6209   -0.2234 C   0  0  0  0  0  0  0  0  0  0  0  0
   -1.5086   -1.0637   -0.1923 C   0  0  0  0  0  0  0  0  0  0  0  0
   -1.3144    0.3243   -0.1449 C   0  0  0  0  0  0  0  0  0  0  0  0
   -2.4660    1.1316   -0.0761 C   0  0  0  0  0  0  0  0  0  0  0  0
   -0.0616    0.9687   -0.1336 N   0  0  0  0  0  0  0  0  0  0  0  0
    1.2690    0.5268    0.0357 C   0  0  0  0  0  0  0  0  0  0  0  0
    1.6611   -0.7352    0.5212 C   0  0  0  0  0  0  0  0  0  0  0  0
    0.5056   -1.9869    1.0539 S   0  0  0  0  0  0  0  0  0  0  0  0
   -0.4684   -1.9493   -0.2918 O   0  0  0  0  0  0  0  0  0  0  0  0
    3.0266   -1.0521    0.6446 C   0  0  0  0  0  0  0  0  0  0  0  0
    4.0118   -0.1385    0.2753 C   0  0  0  0  0  0  0  0  0  0  0  0
    3.6416    1.1041   -0.2195 C   0  0  0  0  0  0  0  0  0  0  0  0
    2.2881    1.4290   -0.3381 C   0  0  0  0  0  0  0  0  0  0  0  0
   -4.6217    1.2287   -0.0340 H   0  0  0  0  0  0  0  0  0  0  0  0
   -4.9119   -1.2336   -0.1782 H   0  0  0  0  0  0  0  0  0  0  0  0
   -2.9126   -2.6994   -0.2856 H   0  0  0  0  0  0  0  0  0  0  0  0
   -2.3719    2.2132   -0.0120 H   0  0  0  0  0  0  0  0  0  0  0  0
   -0.1300    1.9651   -0.3035 H   0  0  0  0  0  0  0  0  0  0  0  0
    3.3312   -2.0232    1.0301 H   0  0  0  0  0  0  0  0  0  0  0  0
    5.0621   -0.3998    0.3732 H   0  0  0  0  0  0  0  0  0  0  0  0
    4.4016    1.8227   -0.5150 H   0  0  0  0  0  0  0  0  0  0  0  0
    2.0302    2.4084   -0.7352 H   0  0  0  0  0  0  0  0  0  0  0  0
  2  1  2  0  0  0  0
  3  2  1  0  0  0  0
  4  3  2  0  0  0  0
  5  4  1  0  0  0  0
  6  5  2  0  0  0  0
  6  1  1  0  0  0  0
  7  5  1  0  0  0  0
  8  7  1  0  0  0  0
  9  8  2  0  0  0  0
 10  9  1  0  0  0  0
 11 10  1  0  0  0  0
 11  4  1  0  0  0  0
 12  9  1  0  0  0  0
 13 12  2  0  0  0  0
 14 13  1  0  0  0  0
 15 14  2  0  0  0  0
 15  8  1  0  0  0  0
  1 16  1  0  0  0  0
  2 17  1  0  0  0  0
  3 18  1  0  0  0  0
  6 19  1  0  0  0  0
  7 20  1  0  0  0  0
 12 21  1  0  0  0  0
 13 22  1  0  0  0  0
 14 23  1  0  0  0  0
 15 24  1  0  0  0  0
M  END
>  <energy>
62.516025211795842

$$$$
