c1ccc(cc1)SC
                    3D

 16 16  0  0  0  0  0  0  0  0999 V2000
   -2.2739    0.6878   -0.3335 C   0  0  0  0  0  0  0  0  0  0  0  0
   -2.1403   -0.6962   -0.4218 C   0  0  0  0  0  0  0  0  0  0  0  0
   -0.9373   -1.3069   -0.0590 C   0  0  0  0  0  0  0  0  0  0  0  0
    0.1428   -0.5371    0.3862 C   0  0  0  0  0  0  0  0  0  0  0  0
   -0.0057    0.8497    0.4889 C   0  0  0  0  0  0  0  0  0  0  0  0
   -1.2084    1.4607    0.1245 C   0  0  0  0  0  0  0  0  0  0  0  0
    1.6541   -1.3664    0.8493 S   0  0  0  0  0  0  0  0  0  0  0  0
    2.8628   -0.3907   -0.0864 C   0  0  0  0  0  0  0  0  0  0  0  0
   -3.2102    1.1634   -0.6142 H   0  0  0  0  0  0  0  0  0  0  0  0
   -2.9724   -1.3025   -0.7700 H   0  0  0  0  0  0  0  0  0  0  0  0
   -0.8502   -2.3887   -0.1295 H   0  0  0  0  0  0  0  0  0  0  0  0
    0.8032    1.4690    0.8656 H   0  0  0  0  0  0  0  0  0  0  0  0
   -1.3153    2.5392    0.2056 H   0  0  0  0  0  0  0  0  0  0  0  0
    2.5747   -0.3266   -1.1393 H   0  0  0  0  0  0  0  0  0  0  0  0
    2.9580    0.6157    0.3293 H   0  0  0  0  0  0  0  0  0  0  0  0
    3.8387   -0.8795   -0.0232 H   0  0  0  0  0  0  0  0  0  0  0  0
  2  1  2  0  0  0  0
  3  2  1  0  0  0  0
  4  3  2  0  0  0  0
  5  4  1  0  0  0  0
  6  5  2  0  0  0  0
  6  1  1  0  0  0  0
  7  4  1  0  0  0  0
  8  7  1  0  0  0  0
  1  9  1  0  0  0  0
  2 10  1  0  0  0  0
  3 11  1  0  0  0  0
  5 12  1  0  0  0  0
  6 13  1  0  0  0  0
  8 14  1  0  0  0  0
  8 15  1  0  0  0  0
  8 16  1  0  0  0  0
M  END
>  <energy>
15.50860824719005

$$$$
