N1(C(=C[C@@H](C=C1)[C@@H]1C=CN(C(=C1)C)C)C)C
                    3D

 36 37  0  0  0  0  0  0  0  0999 V2000
    3.0564    0.0041    1.3053 N   0  0  0  0  0  0  0  0  0  0  0  0
    2.8622    0.6094    0.0478 C   0  0  0  0  0  0  0  0  0  0  0  0
    1.7528    0.3646   -0.6798 C   0  0  0  0  0  0  0  0  0  0  0  0
    0.6433   -0.5610   -0.2073 C   0  0  0  0  0  0  0  0  0  0  0  0
    0.9690   -1.1926    1.1296 C   0  0  0  0  0  0  0  0  0  0  0  0
    2.0981   -0.8865    1.7818 C   0  0  0  0  0  0  0  0  0  0  0  0
   -0.7420    0.1642   -0.2344 C   0  0  0  0  0  0  0  0  0  0  0  0
   -0.9485    1.1298    0.9152 C   0  0  0  0  0  0  0  0  0  0  0  0
   -2.0019    1.0155    1.7340 C   0  0  0  0  0  0  0  0  0  0  0  0
   -2.9780    0.0311    1.6165 N   0  0  0  0  0  0  0  0  0  0  0  0
   -2.8973   -0.8869    0.5490 C   0  0  0  0  0  0  0  0  0  0  0  0
   -1.8745   -0.8455   -0.3310 C   0  0  0  0  0  0  0  0  0  0  0  0
   -3.9717   -1.9295    0.3820 C   0  0  0  0  0  0  0  0  0  0  0  0
   -4.1062    0.0126    2.5557 C   0  0  0  0  0  0  0  0  0  0  0  0
    3.9142    1.5403   -0.4985 C   0  0  0  0  0  0  0  0  0  0  0  0
    4.2509    0.2858    2.1097 C   0  0  0  0  0  0  0  0  0  0  0  0
    1.6205    0.8240   -1.6553 H   0  0  0  0  0  0  0  0  0  0  0  0
    0.6121   -1.3819   -0.9398 H   0  0  0  0  0  0  0  0  0  0  0  0
    0.2556   -1.8876    1.5571 H   0  0  0  0  0  0  0  0  0  0  0  0
    2.3163   -1.3341    2.7467 H   0  0  0  0  0  0  0  0  0  0  0  0
   -0.7971    0.7608   -1.1565 H   0  0  0  0  0  0  0  0  0  0  0  0
   -0.2149    1.9148    1.0652 H   0  0  0  0  0  0  0  0  0  0  0  0
   -2.1414    1.7125    2.5564 H   0  0  0  0  0  0  0  0  0  0  0  0
   -1.8309   -1.5449   -1.1604 H   0  0  0  0  0  0  0  0  0  0  0  0
   -3.9916   -2.5976    1.2491 H   0  0  0  0  0  0  0  0  0  0  0  0
   -4.9527   -1.4570    0.2692 H   0  0  0  0  0  0  0  0  0  0  0  0
   -3.8059   -2.5522   -0.5047 H   0  0  0  0  0  0  0  0  0  0  0  0
   -3.9393    0.6761    3.4122 H   0  0  0  0  0  0  0  0  0  0  0  0
   -4.2595   -0.9932    2.9610 H   0  0  0  0  0  0  0  0  0  0  0  0
   -5.0230    0.3403    2.0532 H   0  0  0  0  0  0  0  0  0  0  0  0
    4.0433    2.4027    0.1625 H   0  0  0  0  0  0  0  0  0  0  0  0
    4.8732    1.0228   -0.6003 H   0  0  0  0  0  0  0  0  0  0  0  0
    3.6499    1.9256   -1.4889 H   0  0  0  0  0  0  0  0  0  0  0  0
    4.3328    1.3603    2.3060 H   0  0  0  0  0  0  0  0  0  0  0  0
    5.1543   -0.0522    1.5906 H   0  0  0  0  0  0  0  0  0  0  0  0
    4.2232   -0.2185    3.0829 H   0  0  0  0  0  0  0  0  0  0  0  0
  2  1  1  0  0  0  0
  3  2  2  0  0  0  0
  4  3  1  0  0  0  0
  5  4  1  0  0  0  0
  6  5  2  0  0  0  0
  6  1  1  0  0  0  0
  7  4  1  0  0  0  0
  8  7  1  0  0  0  0
  9  8  2  0  0  0  0
 10  9  1  0  0  0  0
 11 10  1  0  0  0  0
 12 11  2  0  0  0  0
 12  7  1  0  0  0  0
 13 11  1  0  0  0  0
 14 10  1  0  0  0  0
 15  2  1  0  0  0  0
 16  1  1  0  0  0  0
  3 17  1  0  0  0  0
  4 18  1  0  0  0  0
  5 19  1  0  0  0  0
  6 20  1  0  0  0  0
  7 21  1  0  0  0  0
  8 22  1  0  0  0  0
  9 23  1  0  0  0  0
 12 24  1  0  0  0  0
 13 25  1  0  0  0  0
 13 26  1  0  0  0  0
 13 27  1  0  0  0  0
 14 28  1  0  0  0  0
 14 29  1  0  0  0  0
 14 30  1  0  0  0  0
 15 31  1  0  0  0  0
 15 32  1  0  0  0  0
 15 33  1  0  0  0  0
 16 34  1  0  0  0  0
 16 35  1  0  0  0  0
 16 36  1  0  0  0  0
M  END
>  <energy>
24.896530917381654

$$$$
