CNc1ccccc1
                    3D

 17 17  0  0  0  0  0  0  0  0999 V2000
    2.5427   -0.6368    0.4696 C   0  0  0  0  0  0  0  0  0  0  0  0
    1.7112    0.4052   -0.1047 N   0  0  0  0  0  0  0  0  0  0  0  0
    0.3197    0.2550   -0.1023 C   0  0  0  0  0  0  0  0  0  0  0  0
   -0.3284   -0.9815    0.0010 C   0  0  0  0  0  0  0  0  0  0  0  0
   -1.7229   -1.0779   -0.0731 C   0  0  0  0  0  0  0  0  0  0  0  0
   -2.4932    0.0620   -0.2824 C   0  0  0  0  0  0  0  0  0  0  0  0
   -1.8674    1.2952   -0.4303 C   0  0  0  0  0  0  0  0  0  0  0  0
   -0.4740    1.3845   -0.3539 C   0  0  0  0  0  0  0  0  0  0  0  0
    3.5859   -0.3048    0.4666 H   0  0  0  0  0  0  0  0  0  0  0  0
    2.4947   -1.5575   -0.1205 H   0  0  0  0  0  0  0  0  0  0  0  0
    2.2618   -0.8465    1.5070 H   0  0  0  0  0  0  0  0  0  0  0  0
    1.9853    1.3379    0.1942 H   0  0  0  0  0  0  0  0  0  0  0  0
    0.2364   -1.8980    0.1391 H   0  0  0  0  0  0  0  0  0  0  0  0
   -2.2028   -2.0482    0.0221 H   0  0  0  0  0  0  0  0  0  0  0  0
   -3.5751   -0.0131   -0.3454 H   0  0  0  0  0  0  0  0  0  0  0  0
   -2.4581    2.1881   -0.6153 H   0  0  0  0  0  0  0  0  0  0  0  0
   -0.0062    2.3553   -0.4972 H   0  0  0  0  0  0  0  0  0  0  0  0
  2  1  1  0  0  0  0
  3  2  1  0  0  0  0
  4  3  2  0  0  0  0
  5  4  1  0  0  0  0
  6  5  2  0  0  0  0
  7  6  1  0  0  0  0
  8  7  2  0  0  0  0
  8  3  1  0  0  0  0
  1  9  1  0  0  0  0
  1 10  1  0  0  0  0
  1 11  1  0  0  0  0
  2 12  1  0  0  0  0
  4 13  1  0  0  0  0
  5 14  1  0  0  0  0
  6 15  1  0  0  0  0
  7 16  1  0  0  0  0
  8 17  1  0  0  0  0
M  END
>  <energy>
10.439605136161973

$$$$
