c1cn2c(cc1)cc1c(c2)ccc2c1cc1n(c2)cccc1
                    3D

 36 40  0  0  0  0  0  0  0  0999 V2000
   -5.5770    0.5560   -0.9512 C   0  0  0  0  0  0  0  0  0  0  0  0
   -4.8872   -0.3671   -0.2607 C   0  0  0  0  0  0  0  0  0  0  0  0
   -3.4931   -0.4359   -0.2420 N   0  0  0  0  0  0  0  0  0  0  0  0
   -2.7515    0.5299   -0.9711 C   0  0  0  0  0  0  0  0  0  0  0  0
   -3.5028    1.5104   -1.7591 C   0  0  0  0  0  0  0  0  0  0  0  0
   -4.8478    1.5238   -1.7438 C   0  0  0  0  0  0  0  0  0  0  0  0
   -1.4019    0.5704   -0.9363 C   0  0  0  0  0  0  0  0  0  0  0  0
   -0.6643   -0.3807   -0.0889 C   0  0  0  0  0  0  0  0  0  0  0  0
   -1.4508   -1.4273    0.6328 C   0  0  0  0  0  0  0  0  0  0  0  0
   -2.7941   -1.3896    0.5018 C   0  0  0  0  0  0  0  0  0  0  0  0
   -0.8090   -2.4425    1.4585 C   0  0  0  0  0  0  0  0  0  0  0  0
    0.5167   -2.3939    1.6580 C   0  0  0  0  0  0  0  0  0  0  0  0
    1.2970   -1.3269    1.0470 C   0  0  0  0  0  0  0  0  0  0  0  0
    0.6856   -0.3362    0.1069 C   0  0  0  0  0  0  0  0  0  0  0  0
    1.5744    0.6483   -0.5306 C   0  0  0  0  0  0  0  0  0  0  0  0
    2.8763    0.7010   -0.1793 C   0  0  0  0  0  0  0  0  0  0  0  0
    3.4333   -0.1909    0.7745 N   0  0  0  0  0  0  0  0  0  0  0  0
    2.6114   -1.1823    1.3178 C   0  0  0  0  0  0  0  0  0  0  0  0
    4.7741   -0.0428    1.1287 C   0  0  0  0  0  0  0  0  0  0  0  0
    5.5833    0.8913    0.6013 C   0  0  0  0  0  0  0  0  0  0  0  0
    5.0509    1.7943   -0.3979 C   0  0  0  0  0  0  0  0  0  0  0  0
    3.7642    1.7033   -0.7750 C   0  0  0  0  0  0  0  0  0  0  0  0
   -6.6582    0.5968   -0.9247 H   0  0  0  0  0  0  0  0  0  0  0  0
   -5.3964   -1.1088    0.3466 H   0  0  0  0  0  0  0  0  0  0  0  0
   -2.9553    2.2401   -2.3477 H   0  0  0  0  0  0  0  0  0  0  0  0
   -5.4107    2.2563   -2.3108 H   0  0  0  0  0  0  0  0  0  0  0  0
   -0.8711    1.3224   -1.5011 H   0  0  0  0  0  0  0  0  0  0  0  0
   -3.4363   -2.1100    0.9974 H   0  0  0  0  0  0  0  0  0  0  0  0
   -1.4117   -3.2240    1.9097 H   0  0  0  0  0  0  0  0  0  0  0  0
    1.0110   -3.1321    2.2798 H   0  0  0  0  0  0  0  0  0  0  0  0
    1.1848    1.3332   -1.2701 H   0  0  0  0  0  0  0  0  0  0  0  0
    3.1251   -1.8516    2.0011 H   0  0  0  0  0  0  0  0  0  0  0  0
    5.1347   -0.7377    1.8786 H   0  0  0  0  0  0  0  0  0  0  0  0
    6.6180    0.9884    0.9032 H   0  0  0  0  0  0  0  0  0  0  0  0
    5.7127    2.5353   -0.8298 H   0  0  0  0  0  0  0  0  0  0  0  0
    3.3653    2.3793   -1.5237 H   0  0  0  0  0  0  0  0  0  0  0  0
  2  1  2  0  0  0  0
  3  2  1  0  0  0  0
  4  3  1  0  0  0  0
  5  4  1  0  0  0  0
  6  5  2  0  0  0  0
  6  1  1  0  0  0  0
  7  4  2  0  0  0  0
  8  7  1  0  0  0  0
  9  8  1  0  0  0  0
 10  9  2  0  0  0  0
 10  3  1  0  0  0  0
 11  9  1  0  0  0  0
 12 11  2  0  0  0  0
 13 12  1  0  0  0  0
 14 13  1  0  0  0  0
 14  8  2  0  0  0  0
 15 14  1  0  0  0  0
 16 15  2  0  0  0  0
 17 16  1  0  0  0  0
 18 17  1  0  0  0  0
 18 13  2  0  0  0  0
 19 17  1  0  0  0  0
 20 19  2  0  0  0  0
 21 20  1  0  0  0  0
 22 21  2  0  0  0  0
 22 16  1  0  0  0  0
  1 23  1  0  0  0  0
  2 24  1  0  0  0  0
  5 25  1  0  0  0  0
  6 26  1  0  0  0  0
  7 27  1  0  0  0  0
 10 28  1  0  0  0  0
 11 29  1  0  0  0  0
 12 30  1  0  0  0  0
 15 31  1  0  0  0  0
 18 32  1  0  0  0  0
 19 33  1  0  0  0  0
 20 34  1  0  0  0  0
 21 35  1  0  0  0  0
 22 36  1  0  0  0  0
M  END
>  <energy>
76.644547395203944

$$$$
