c1cc(O)ccc1C
                    3D

 16 16  0  0  0  0  0  0  0  0999 V2000
    0.4477   -1.0718    0.3151 C   0  0  0  0  0  0  0  0  0  0  0  0
   -0.9301   -1.2695    0.4193 C   0  0  0  0  0  0  0  0  0  0  0  0
   -1.8009   -0.2435    0.0746 C   0  0  0  0  0  0  0  0  0  0  0  0
   -3.1389   -0.4802    0.1885 O   0  0  0  0  0  0  0  0  0  0  0  0
   -1.3167    0.9831   -0.3681 C   0  0  0  0  0  0  0  0  0  0  0  0
    0.0626    1.1802   -0.4718 C   0  0  0  0  0  0  0  0  0  0  0  0
    0.9554    0.1507   -0.1442 C   0  0  0  0  0  0  0  0  0  0  0  0
    2.4368    0.3716   -0.2263 C   0  0  0  0  0  0  0  0  0  0  0  0
    1.1218   -1.8786    0.5932 H   0  0  0  0  0  0  0  0  0  0  0  0
   -1.3217   -2.2200    0.7698 H   0  0  0  0  0  0  0  0  0  0  0  0
   -3.6169    0.3141   -0.1003 H   0  0  0  0  0  0  0  0  0  0  0  0
   -1.9895    1.7924   -0.6322 H   0  0  0  0  0  0  0  0  0  0  0  0
    0.4382    2.1427   -0.8117 H   0  0  0  0  0  0  0  0  0  0  0  0
    2.8172    0.7185    0.7392 H   0  0  0  0  0  0  0  0  0  0  0  0
    2.9533   -0.5544   -0.4999 H   0  0  0  0  0  0  0  0  0  0  0  0
    2.6804    1.1169   -0.9906 H   0  0  0  0  0  0  0  0  0  0  0  0
  2  1  2  0  0  0  0
  3  2  1  0  0  0  0
  4  3  1  0  0  0  0
  5  3  2  0  0  0  0
  6  5  1  0  0  0  0
  7  6  2  0  0  0  0
  7  1  1  0  0  0  0
  8  7  1  0  0  0  0
  1  9  1  0  0  0  0
  2 10  1  0  0  0  0
  4 11  1  0  0  0  0
  5 12  1  0  0  0  0
  6 13  1  0  0  0  0
  8 14  1  0  0  0  0
  8 15  1  0  0  0  0
  8 16  1  0  0  0  0
M  END
>  <energy>
7.8712960893271919

$$$$
