C1=CN2C(=CC1)C1=CCC=C(N1CC2)Br
                    3D

 28 30  0  0  0  0  0  0  0  0999 V2000
    3.4419   -1.0401   -0.1206 C   0  0  0  0  0  0  0  0  0  0  0  0
    2.9445    0.1996   -0.0315 C   0  0  0  0  0  0  0  0  0  0  0  0
    1.5850    0.4761   -0.0200 N   0  0  0  0  0  0  0  0  0  0  0  0
    0.6420   -0.5641   -0.1636 C   0  0  0  0  0  0  0  0  0  0  0  0
    1.0664   -1.8468   -0.2305 C   0  0  0  0  0  0  0  0  0  0  0  0
    2.5244   -2.2231   -0.2179 C   0  0  0  0  0  0  0  0  0  0  0  0
   -0.8043   -0.2085   -0.1630 C   0  0  0  0  0  0  0  0  0  0  0  0
   -1.7189   -0.9818   -0.7885 C   0  0  0  0  0  0  0  0  0  0  0  0
   -3.1846   -0.6727   -0.7772 C   0  0  0  0  0  0  0  0  0  0  0  0
   -3.5257    0.5253    0.0501 C   0  0  0  0  0  0  0  0  0  0  0  0
   -2.5763    1.2833    0.6278 C   0  0  0  0  0  0  0  0  0  0  0  0
   -1.2090    0.9949    0.4746 N   0  0  0  0  0  0  0  0  0  0  0  0
   -0.1531    1.8819    1.0106 C   0  0  0  0  0  0  0  0  0  0  0  0
    1.0942    1.8534    0.1171 C   0  0  0  0  0  0  0  0  0  0  0  0
   -3.1486    2.7398    1.6783 Br  0  0  0  0  0  0  0  0  0  0  0  0
    4.5126   -1.2104   -0.1197 H   0  0  0  0  0  0  0  0  0  0  0  0
    3.5978    1.0638    0.0437 H   0  0  0  0  0  0  0  0  0  0  0  0
    0.3694   -2.6750   -0.2821 H   0  0  0  0  0  0  0  0  0  0  0  0
    2.7540   -2.7761   -1.1354 H   0  0  0  0  0  0  0  0  0  0  0  0
    2.7122   -2.8922    0.6288 H   0  0  0  0  0  0  0  0  0  0  0  0
   -1.4302   -1.8716   -1.3374 H   0  0  0  0  0  0  0  0  0  0  0  0
   -3.5311   -0.5138   -1.8043 H   0  0  0  0  0  0  0  0  0  0  0  0
   -3.7209   -1.5411   -0.3770 H   0  0  0  0  0  0  0  0  0  0  0  0
   -4.5785    0.7566    0.1719 H   0  0  0  0  0  0  0  0  0  0  0  0
   -0.4808    2.9249    1.0539 H   0  0  0  0  0  0  0  0  0  0  0  0
    0.0971    1.5641    2.0304 H   0  0  0  0  0  0  0  0  0  0  0  0
    0.8603    2.2514   -0.8786 H   0  0  0  0  0  0  0  0  0  0  0  0
    1.8601    2.5021    0.5601 H   0  0  0  0  0  0  0  0  0  0  0  0
  2  1  2  0  0  0  0
  3  2  1  0  0  0  0
  4  3  1  0  0  0  0
  5  4  2  0  0  0  0
  6  5  1  0  0  0  0
  6  1  1  0  0  0  0
  7  4  1  0  0  0  0
  8  7  2  0  0  0  0
  9  8  1  0  0  0  0
 10  9  1  0  0  0  0
 11 10  2  0  0  0  0
 12 11  1  0  0  0  0
 12  7  1  0  0  0  0
 13 12  1  0  0  0  0
 14 13  1  0  0  0  0
 14  3  1  0  0  0  0
 15 11  1  0  0  0  0
  1 16  1  0  0  0  0
  2 17  1  0  0  0  0
  5 18  1  0  0  0  0
  6 19  1  0  0  0  0
  6 20  1  0  0  0  0
  8 21  1  0  0  0  0
  9 22  1  0  0  0  0
  9 23  1  0  0  0  0
 10 24  1  0  0  0  0
 13 25  1  0  0  0  0
 13 26  1  0  0  0  0
 14 27  1  0  0  0  0
 14 28  1  0  0  0  0
M  END
>  <energy>
4.0309409164961849

$$$$
