C1=CN2C(=CC1)C1=CCC=CN1[C@H](C2)C
                    3D

 31 33  0  0  0  0  0  0  0  0999 V2000
    0.9502   -3.6485    0.1496 C   0  0  0  0  0  0  0  0  0  0  0  0
    1.6437   -2.5085    0.2583 C   0  0  0  0  0  0  0  0  0  0  0  0
    1.0553   -1.2531    0.2200 N   0  0  0  0  0  0  0  0  0  0  0  0
   -0.3470   -1.1228    0.1368 C   0  0  0  0  0  0  0  0  0  0  0  0
   -1.1137   -2.2280   -0.0072 C   0  0  0  0  0  0  0  0  0  0  0  0
   -0.5399   -3.6193   -0.0230 C   0  0  0  0  0  0  0  0  0  0  0  0
   -0.9285    0.2476    0.1446 C   0  0  0  0  0  0  0  0  0  0  0  0
   -2.1868    0.4752    0.5868 C   0  0  0  0  0  0  0  0  0  0  0  0
   -2.8203    1.8373    0.5829 C   0  0  0  0  0  0  0  0  0  0  0  0
   -1.9434    2.8877   -0.0238 C   0  0  0  0  0  0  0  0  0  0  0  0
   -0.6955    2.5961   -0.4125 C   0  0  0  0  0  0  0  0  0  0  0  0
   -0.1163    1.3373   -0.2816 N   0  0  0  0  0  0  0  0  0  0  0  0
    1.2979    1.0470   -0.6630 C   0  0  0  0  0  0  0  0  0  0  0  0
    1.8717   -0.0325    0.2861 C   0  0  0  0  0  0  0  0  0  0  0  0
    2.2201    2.2684   -0.6106 C   0  0  0  0  0  0  0  0  0  0  0  0
    1.4526   -4.6083    0.1798 H   0  0  0  0  0  0  0  0  0  0  0  0
    2.7228   -2.5153    0.3790 H   0  0  0  0  0  0  0  0  0  0  0  0
   -2.1878   -2.1613   -0.1326 H   0  0  0  0  0  0  0  0  0  0  0  0
   -0.7993   -4.1017   -0.9719 H   0  0  0  0  0  0  0  0  0  0  0  0
   -1.0022   -4.2006    0.7826 H   0  0  0  0  0  0  0  0  0  0  0  0
   -2.8054   -0.3267    0.9725 H   0  0  0  0  0  0  0  0  0  0  0  0
   -3.7562    1.7869    0.0148 H   0  0  0  0  0  0  0  0  0  0  0  0
   -3.0707    2.1230    1.6105 H   0  0  0  0  0  0  0  0  0  0  0  0
   -2.3389    3.8898   -0.1420 H   0  0  0  0  0  0  0  0  0  0  0  0
   -0.0782    3.3695   -0.8537 H   0  0  0  0  0  0  0  0  0  0  0  0
    1.2966    0.6592   -1.6907 H   0  0  0  0  0  0  0  0  0  0  0  0
    1.8870    0.3299    1.3224 H   0  0  0  0  0  0  0  0  0  0  0  0
    2.9084   -0.2511    0.0002 H   0  0  0  0  0  0  0  0  0  0  0  0
    3.2628    1.9771   -0.7798 H   0  0  0  0  0  0  0  0  0  0  0  0
    2.1637    2.7739    0.3597 H   0  0  0  0  0  0  0  0  0  0  0  0
    1.9685    2.9930   -1.3917 H   0  0  0  0  0  0  0  0  0  0  0  0
  2  1  2  0  0  0  0
  3  2  1  0  0  0  0
  4  3  1  0  0  0  0
  5  4  2  0  0  0  0
  6  5  1  0  0  0  0
  6  1  1  0  0  0  0
  7  4  1  0  0  0  0
  8  7  2  0  0  0  0
  9  8  1  0  0  0  0
 10  9  1  0  0  0  0
 11 10  2  0  0  0  0
 12 11  1  0  0  0  0
 12  7  1  0  0  0  0
 13 12  1  0  0  0  0
 14 13  1  0  0  0  0
 14  3  1  0  0  0  0
 15 13  1  0  0  0  0
  1 16  1  0  0  0  0
  2 17  1  0  0  0  0
  5 18  1  0  0  0  0
  6 19  1  0  0  0  0
  6 20  1  0  0  0  0
  8 21  1  0  0  0  0
  9 22  1  0  0  0  0
  9 23  1  0  0  0  0
 10 24  1  0  0  0  0
 11 25  1  0  0  0  0
 13 26  1  0  0  0  0
 14 27  1  0  0  0  0
 14 28  1  0  0  0  0
 15 29  1  0  0  0  0
 15 30  1  0  0  0  0
 15 31  1  0  0  0  0
M  END
>  <energy>
26.938588656053209

$$$$
