c1ccc2c(c1N)C(=O)N=NC2=O
                    3D

 18 19  0  0  0  0  0  0  0  0999 V2000
    1.7549   -0.8143    0.1726 C   0  0  0  0  0  0  0  0  0  0  0  0
    0.9844   -1.9740    0.0594 C   0  0  0  0  0  0  0  0  0  0  0  0
   -0.3996   -1.8778   -0.0491 C   0  0  0  0  0  0  0  0  0  0  0  0
   -1.0029   -0.6152   -0.0570 C   0  0  0  0  0  0  0  0  0  0  0  0
   -0.2409    0.5362    0.0670 C   0  0  0  0  0  0  0  0  0  0  0  0
    1.1565    0.4536    0.2216 C   0  0  0  0  0  0  0  0  0  0  0  0
    1.9898    1.5831    0.1932 N   0  0  0  0  0  0  0  0  0  0  0  0
   -0.9791    1.8113    0.0945 C   0  0  0  0  0  0  0  0  0  0  0  0
   -0.4008    2.8211    0.4886 O   0  0  0  0  0  0  0  0  0  0  0  0
   -2.2916    1.8254   -0.3209 N   0  0  0  0  0  0  0  0  0  0  0  0
   -2.9748    0.7822   -0.4325 N   0  0  0  0  0  0  0  0  0  0  0  0
   -2.4576   -0.4681   -0.1884 C   0  0  0  0  0  0  0  0  0  0  0  0
   -3.1510   -1.4765   -0.1021 O   0  0  0  0  0  0  0  0  0  0  0  0
    2.8386   -0.9063    0.2175 H   0  0  0  0  0  0  0  0  0  0  0  0
    1.4679   -2.9484    0.0404 H   0  0  0  0  0  0  0  0  0  0  0  0
   -1.0003   -2.7812   -0.1423 H   0  0  0  0  0  0  0  0  0  0  0  0
    2.8806    1.4759    0.6679 H   0  0  0  0  0  0  0  0  0  0  0  0
    1.5083    2.4474    0.4673 H   0  0  0  0  0  0  0  0  0  0  0  0
  2  1  2  0  0  0  0
  3  2  1  0  0  0  0
  4  3  2  0  0  0  0
  5  4  1  0  0  0  0
  6  5  2  0  0  0  0
  6  1  1  0  0  0  0
  7  6  1  0  0  0  0
  8  5  1  0  0  0  0
  9  8  2  0  0  0  0
 10  8  1  0  0  0  0
 11 10  2  0  0  0  0
 12 11  1  0  0  0  0
 12  4  1  0  0  0  0
 13 12  2  0  0  0  0
  1 14  1  0  0  0  0
  2 15  1  0  0  0  0
  3 16  1  0  0  0  0
  7 17  1  0  0  0  0
  7 18  1  0  0  0  0
M  END
>  <energy>
77.818720484856598

$$$$
