OCO
                    3D

  7  6  0  0  0  0  0  0  0  0999 V2000
   -1.2558   -0.2790    0.0747 O   0  0  0  0  0  0  0  0  0  0  0  0
    0.1463   -0.3358    0.1485 C   0  0  0  0  0  0  0  0  0  0  0  0
    0.6265    0.9844    0.1772 O   0  0  0  0  0  0  0  0  0  0  0  0
   -1.4475    0.0233   -0.8291 H   0  0  0  0  0  0  0  0  0  0  0  0
    0.4506   -0.8651    1.0558 H   0  0  0  0  0  0  0  0  0  0  0  0
    0.5466   -0.8592   -0.7242 H   0  0  0  0  0  0  0  0  0  0  0  0
    0.3955    1.3163    1.0612 H   0  0  0  0  0  0  0  0  0  0  0  0
  2  1  1  0  0  0  0
  3  2  1  0  0  0  0
  1  4  1  0  0  0  0
  2  5  1  0  0  0  0
  2  6  1  0  0  0  0
  3  7  1  0  0  0  0
M  END
>  <energy>
-37.867828846833078

$$$$
