C1=CN2C(=CC1)C1=CCC(=CN1CC2)OCCC
                    3D

 38 40  0  0  0  0  0  0  0  0999 V2000
   -4.4606   -0.0855    2.0486 C   0  0  0  0  0  0  0  0  0  0  0  0
   -3.8662   -1.0847    1.3864 C   0  0  0  0  0  0  0  0  0  0  0  0
   -2.7499   -0.9112    0.5818 N   0  0  0  0  0  0  0  0  0  0  0  0
   -2.1278    0.3566    0.4880 C   0  0  0  0  0  0  0  0  0  0  0  0
   -2.6960    1.4235    1.0931 C   0  0  0  0  0  0  0  0  0  0  0  0
   -3.9376    1.3168    1.9386 C   0  0  0  0  0  0  0  0  0  0  0  0
   -0.8741    0.4736   -0.3125 C   0  0  0  0  0  0  0  0  0  0  0  0
    0.0188    1.4667   -0.1063 C   0  0  0  0  0  0  0  0  0  0  0  0
    1.3098    1.5782   -0.8758 C   0  0  0  0  0  0  0  0  0  0  0  0
    1.5645    0.4135   -1.7937 C   0  0  0  0  0  0  0  0  0  0  0  0
    0.6218   -0.5322   -1.9515 C   0  0  0  0  0  0  0  0  0  0  0  0
   -0.5867   -0.5385   -1.2600 N   0  0  0  0  0  0  0  0  0  0  0  0
   -1.5711   -1.6124   -1.4698 C   0  0  0  0  0  0  0  0  0  0  0  0
   -2.1574   -2.0578   -0.1250 C   0  0  0  0  0  0  0  0  0  0  0  0
    2.8039    0.4213   -2.3898 O   0  0  0  0  0  0  0  0  0  0  0  0
    3.4812   -0.8411   -2.4055 C   0  0  0  0  0  0  0  0  0  0  0  0
    4.9421   -0.5756   -2.0460 C   0  0  0  0  0  0  0  0  0  0  0  0
    5.7901   -1.8318   -2.0990 C   0  0  0  0  0  0  0  0  0  0  0  0
   -5.3266   -0.2714    2.6731 H   0  0  0  0  0  0  0  0  0  0  0  0
   -4.2435   -2.1007    1.4507 H   0  0  0  0  0  0  0  0  0  0  0  0
   -2.2831    2.4200    1.0002 H   0  0  0  0  0  0  0  0  0  0  0  0
   -4.7158    1.9613    1.5130 H   0  0  0  0  0  0  0  0  0  0  0  0
   -3.7099    1.6914    2.9433 H   0  0  0  0  0  0  0  0  0  0  0  0
   -0.1389    2.2337    0.6429 H   0  0  0  0  0  0  0  0  0  0  0  0
    2.1345    1.6581   -0.1570 H   0  0  0  0  0  0  0  0  0  0  0  0
    1.2913    2.5026   -1.4640 H   0  0  0  0  0  0  0  0  0  0  0  0
    0.7640   -1.3641   -2.6326 H   0  0  0  0  0  0  0  0  0  0  0  0
   -1.1130   -2.4807   -1.9604 H   0  0  0  0  0  0  0  0  0  0  0  0
   -2.3647   -1.2435   -2.1318 H   0  0  0  0  0  0  0  0  0  0  0  0
   -2.9127   -2.8308   -0.3146 H   0  0  0  0  0  0  0  0  0  0  0  0
   -1.3764   -2.5065    0.5032 H   0  0  0  0  0  0  0  0  0  0  0  0
    3.3933   -1.2738   -3.4099 H   0  0  0  0  0  0  0  0  0  0  0  0
    3.0587   -1.5463   -1.6771 H   0  0  0  0  0  0  0  0  0  0  0  0
    5.3601    0.1871   -2.7147 H   0  0  0  0  0  0  0  0  0  0  0  0
    4.9855   -0.1468   -1.0359 H   0  0  0  0  0  0  0  0  0  0  0  0
    5.3870   -2.6019   -1.4359 H   0  0  0  0  0  0  0  0  0  0  0  0
    5.8256   -2.2329   -3.1151 H   0  0  0  0  0  0  0  0  0  0  0  0
    6.8140   -1.6104   -1.7807 H   0  0  0  0  0  0  0  0  0  0  0  0
  2  1  2  0  0  0  0
  3  2  1  0  0  0  0
  4  3  1  0  0  0  0
  5  4  2  0  0  0  0
  6  5  1  0  0  0  0
  6  1  1  0  0  0  0
  7  4  1  0  0  0  0
  8  7  2  0  0  0  0
  9  8  1  0  0  0  0
 10  9  1  0  0  0  0
 11 10  2  0  0  0  0
 12 11  1  0  0  0  0
 12  7  1  0  0  0  0
 13 12  1  0  0  0  0
 14 13  1  0  0  0  0
 14  3  1  0  0  0  0
 15 10  1  0  0  0  0
 16 15  1  0  0  0  0
 17 16  1  0  0  0  0
 18 17  1  0  0  0  0
  1 19  1  0  0  0  0
  2 20  1  0  0  0  0
  5 21  1  0  0  0  0
  6 22  1  0  0  0  0
  6 23  1  0  0  0  0
  8 24  1  0  0  0  0
  9 25  1  0  0  0  0
  9 26  1  0  0  0  0
 11 27  1  0  0  0  0
 13 28  1  0  0  0  0
 13 29  1  0  0  0  0
 14 30  1  0  0  0  0
 14 31  1  0  0  0  0
 16 32  1  0  0  0  0
 16 33  1  0  0  0  0
 17 34  1  0  0  0  0
 17 35  1  0  0  0  0
 18 36  1  0  0  0  0
 18 37  1  0  0  0  0
 18 38  1  0  0  0  0
M  END
>  <energy>
42.087084651598502

$$$$
