C1=C(N2C(=CC1)C1=CCC=CN1CC2)C
                    3D

 31 33  0  0  0  0  0  0  0  0999 V2000
    3.1780    0.4417   -0.4583 C   0  0  0  0  0  0  0  0  0  0  0  0
    2.4412    0.3228    0.6629 C   0  0  0  0  0  0  0  0  0  0  0  0
    1.0527    0.0906    0.5965 N   0  0  0  0  0  0  0  0  0  0  0  0
    0.3780    0.1150   -0.6530 C   0  0  0  0  0  0  0  0  0  0  0  0
    1.0827    0.1996   -1.8018 C   0  0  0  0  0  0  0  0  0  0  0  0
    2.5736    0.3406   -1.8242 C   0  0  0  0  0  0  0  0  0  0  0  0
   -1.1067   -0.0159   -0.6644 C   0  0  0  0  0  0  0  0  0  0  0  0
   -1.8705    0.5122   -1.6480 C   0  0  0  0  0  0  0  0  0  0  0  0
   -3.3711    0.3914   -1.6664 C   0  0  0  0  0  0  0  0  0  0  0  0
   -3.9195   -0.3764   -0.4996 C   0  0  0  0  0  0  0  0  0  0  0  0
   -3.1010   -0.8453    0.4502 C   0  0  0  0  0  0  0  0  0  0  0  0
   -1.7265   -0.6630    0.4279 N   0  0  0  0  0  0  0  0  0  0  0  0
   -0.8803   -1.1464    1.5280 C   0  0  0  0  0  0  0  0  0  0  0  0
    0.2381   -0.1343    1.8108 C   0  0  0  0  0  0  0  0  0  0  0  0
    3.1176    0.4586    2.0031 C   0  0  0  0  0  0  0  0  0  0  0  0
    4.2476    0.6172   -0.4085 H   0  0  0  0  0  0  0  0  0  0  0  0
    0.5977    0.1605   -2.7699 H   0  0  0  0  0  0  0  0  0  0  0  0
    2.8328    1.2417   -2.3914 H   0  0  0  0  0  0  0  0  0  0  0  0
    3.0095   -0.5166   -2.3489 H   0  0  0  0  0  0  0  0  0  0  0  0
   -1.4323    1.0644   -2.4712 H   0  0  0  0  0  0  0  0  0  0  0  0
   -3.6738   -0.1076   -2.5938 H   0  0  0  0  0  0  0  0  0  0  0  0
   -3.8098    1.3954   -1.6711 H   0  0  0  0  0  0  0  0  0  0  0  0
   -4.9892   -0.5389   -0.4395 H   0  0  0  0  0  0  0  0  0  0  0  0
   -3.4849   -1.3971    1.3030 H   0  0  0  0  0  0  0  0  0  0  0  0
   -1.4684   -1.2875    2.4430 H   0  0  0  0  0  0  0  0  0  0  0  0
   -0.4558   -2.1205    1.2541 H   0  0  0  0  0  0  0  0  0  0  0  0
    0.8395   -0.5320    2.6344 H   0  0  0  0  0  0  0  0  0  0  0  0
   -0.1844    0.8238    2.1389 H   0  0  0  0  0  0  0  0  0  0  0  0
    4.1642    0.7688    1.9075 H   0  0  0  0  0  0  0  0  0  0  0  0
    2.6143    1.2153    2.6141 H   0  0  0  0  0  0  0  0  0  0  0  0
    3.1089   -0.4968    2.5372 H   0  0  0  0  0  0  0  0  0  0  0  0
  2  1  2  0  0  0  0
  3  2  1  0  0  0  0
  4  3  1  0  0  0  0
  5  4  2  0  0  0  0
  6  5  1  0  0  0  0
  6  1  1  0  0  0  0
  7  4  1  0  0  0  0
  8  7  2  0  0  0  0
  9  8  1  0  0  0  0
 10  9  1  0  0  0  0
 11 10  2  0  0  0  0
 12 11  1  0  0  0  0
 12  7  1  0  0  0  0
 13 12  1  0  0  0  0
 14 13  1  0  0  0  0
 14  3  1  0  0  0  0
 15  2  1  0  0  0  0
  1 16  1  0  0  0  0
  5 17  1  0  0  0  0
  6 18  1  0  0  0  0
  6 19  1  0  0  0  0
  8 20  1  0  0  0  0
  9 21  1  0  0  0  0
  9 22  1  0  0  0  0
 10 23  1  0  0  0  0
 11 24  1  0  0  0  0
 13 25  1  0  0  0  0
 13 26  1  0  0  0  0
 14 27  1  0  0  0  0
 14 28  1  0  0  0  0
 15 29  1  0  0  0  0
 15 30  1  0  0  0  0
 15 31  1  0  0  0  0
M  END
>  <energy>
22.028885204216987

$$$$
