c1(O)ccccc1
                    2D

 13 13  0  0  0  0  0  0  0  0999 V2000
    1.1169   -0.1292   -0.1974 C   0  0  0  0  0  0  0  0  0  0  0  0
    2.4719   -0.2007   -0.3344 O   0  0  0  0  0  0  0  0  0  0  0  0
    0.3925   -1.3119   -0.2967 C   0  0  0  0  0  0  0  0  0  0  0  0
   -0.9956   -1.2843   -0.1621 C   0  0  0  0  0  0  0  0  0  0  0  0
   -1.6488   -0.0737    0.0727 C   0  0  0  0  0  0  0  0  0  0  0  0
   -0.9141    1.1092    0.1714 C   0  0  0  0  0  0  0  0  0  0  0  0
    0.4751    1.0841    0.0349 C   0  0  0  0  0  0  0  0  0  0  0  0
    2.8379    0.6938   -0.2415 H   0  0  0  0  0  0  0  0  0  0  0  0
    0.9070   -2.2509   -0.4779 H   0  0  0  0  0  0  0  0  0  0  0  0
   -1.5662   -2.2058   -0.2401 H   0  0  0  0  0  0  0  0  0  0  0  0
   -2.7304   -0.0525    0.1790 H   0  0  0  0  0  0  0  0  0  0  0  0
   -1.4254    2.0505    0.3549 H   0  0  0  0  0  0  0  0  0  0  0  0
    1.0335    2.0113    0.1127 H   0  0  0  0  0  0  0  0  0  0  0  0
  2  1  1  0  0  0  0
  3  1  2  0  0  0  0
  4  3  1  0  0  0  0
  5  4  2  0  0  0  0
  6  5  1  0  0  0  0
  7  6  2  0  0  0  0
  7  1  1  0  0  0  0
  2  8  1  0  0  0  0
  3  9  1  0  0  0  0
  4 10  1  0  0  0  0
  5 11  1  0  0  0  0
  6 12  1  0  0  0  0
  7 13  1  0  0  0  0
M  END
>  <energy>
5.7823710931971188

$$$$
