c1c(c2c3n(c1)CCCn1c3c(cc2)c(cc1)c1ccccc1)c1ccccc1
                    3D

 51 56  0  0  0  0  0  0  0  0999 V2000
    3.3517   -1.4958    0.5508 C   0  0  0  0  0  0  0  0  0  0  0  0
    2.6349   -0.2323    0.6131 C   0  0  0  0  0  0  0  0  0  0  0  0
    1.2722   -0.2365    0.5889 C   0  0  0  0  0  0  0  0  0  0  0  0
    0.5150   -1.5449    0.4254 C   0  0  0  0  0  0  0  0  0  0  0  0
    1.2782   -2.7278    0.6709 N   0  0  0  0  0  0  0  0  0  0  0  0
    2.6699   -2.6417    0.6204 C   0  0  0  0  0  0  0  0  0  0  0  0
    0.7418   -3.9582    1.2827 C   0  0  0  0  0  0  0  0  0  0  0  0
   -0.7470   -4.1680    1.1764 C   0  0  0  0  0  0  0  0  0  0  0  0
   -1.1981   -3.9610   -0.2537 C   0  0  0  0  0  0  0  0  0  0  0  0
   -1.5980   -2.5661   -0.4583 N   0  0  0  0  0  0  0  0  0  0  0  0
   -0.7780   -1.4696   -0.0521 C   0  0  0  0  0  0  0  0  0  0  0  0
   -1.3924   -0.0842   -0.2359 C   0  0  0  0  0  0  0  0  0  0  0  0
   -0.7449    1.0779    0.3743 C   0  0  0  0  0  0  0  0  0  0  0  0
    0.5267    1.0063    0.7677 C   0  0  0  0  0  0  0  0  0  0  0  0
   -2.5716    0.0681   -0.9056 C   0  0  0  0  0  0  0  0  0  0  0  0
   -3.2558   -1.1075   -1.4182 C   0  0  0  0  0  0  0  0  0  0  0  0
   -2.7650   -2.3245   -1.1714 C   0  0  0  0  0  0  0  0  0  0  0  0
   -3.1729    1.4038   -1.1492 C   0  0  0  0  0  0  0  0  0  0  0  0
   -4.3666    1.7683   -0.5142 C   0  0  0  0  0  0  0  0  0  0  0  0
   -4.9266    3.0273   -0.7405 C   0  0  0  0  0  0  0  0  0  0  0  0
   -4.2966    3.9291   -1.5994 C   0  0  0  0  0  0  0  0  0  0  0  0
   -3.1109    3.5710   -2.2387 C   0  0  0  0  0  0  0  0  0  0  0  0
   -2.5535    2.3104   -2.0218 C   0  0  0  0  0  0  0  0  0  0  0  0
    3.4097    1.0303    0.6689 C   0  0  0  0  0  0  0  0  0  0  0  0
    4.0777    1.4062    1.8403 C   0  0  0  0  0  0  0  0  0  0  0  0
    4.8082    2.5953    1.8810 C   0  0  0  0  0  0  0  0  0  0  0  0
    4.8732    3.4148    0.7540 C   0  0  0  0  0  0  0  0  0  0  0  0
    4.2148    3.0469   -0.4181 C   0  0  0  0  0  0  0  0  0  0  0  0
    3.4895    1.8552   -0.4627 C   0  0  0  0  0  0  0  0  0  0  0  0
    4.4355   -1.4889    0.5104 H   0  0  0  0  0  0  0  0  0  0  0  0
    3.1922   -3.5927    0.6528 H   0  0  0  0  0  0  0  0  0  0  0  0
    1.2377   -4.8235    0.8223 H   0  0  0  0  0  0  0  0  0  0  0  0
    1.0230   -3.9754    2.3435 H   0  0  0  0  0  0  0  0  0  0  0  0
   -0.9720   -5.1938    1.4902 H   0  0  0  0  0  0  0  0  0  0  0  0
   -1.2854   -3.5114    1.8724 H   0  0  0  0  0  0  0  0  0  0  0  0
   -0.4359   -4.2531   -0.9868 H   0  0  0  0  0  0  0  0  0  0  0  0
   -2.0576   -4.6240   -0.4207 H   0  0  0  0  0  0  0  0  0  0  0  0
   -1.2919    2.0044    0.5148 H   0  0  0  0  0  0  0  0  0  0  0  0
    0.9977    1.8728    1.2179 H   0  0  0  0  0  0  0  0  0  0  0  0
   -4.1672   -0.9781   -1.9899 H   0  0  0  0  0  0  0  0  0  0  0  0
   -3.2772   -3.2042   -1.5451 H   0  0  0  0  0  0  0  0  0  0  0  0
   -4.8585    1.0751    0.1641 H   0  0  0  0  0  0  0  0  0  0  0  0
   -5.8526    3.3056   -0.2446 H   0  0  0  0  0  0  0  0  0  0  0  0
   -4.7274    4.9124   -1.7673 H   0  0  0  0  0  0  0  0  0  0  0  0
   -2.6169    4.2742   -2.9028 H   0  0  0  0  0  0  0  0  0  0  0  0
   -1.6252    2.0379   -2.5211 H   0  0  0  0  0  0  0  0  0  0  0  0
    4.0215    0.7784    2.7262 H   0  0  0  0  0  0  0  0  0  0  0  0
    5.3244    2.8833    2.7938 H   0  0  0  0  0  0  0  0  0  0  0  0
    5.4387    4.3421    0.7891 H   0  0  0  0  0  0  0  0  0  0  0  0
    4.2629    3.6856   -1.2967 H   0  0  0  0  0  0  0  0  0  0  0  0
    2.9733    1.5760   -1.3785 H   0  0  0  0  0  0  0  0  0  0  0  0
  2  1  1  0  0  0  0
  3  2  2  0  0  0  0
  4  3  1  0  0  0  0
  5  4  1  0  0  0  0
  6  5  1  0  0  0  0
  6  1  2  0  0  0  0
  7  5  1  0  0  0  0
  8  7  1  0  0  0  0
  9  8  1  0  0  0  0
 10  9  1  0  0  0  0
 11 10  1  0  0  0  0
 11  4  2  0  0  0  0
 12 11  1  0  0  0  0
 13 12  1  0  0  0  0
 14 13  2  0  0  0  0
 14  3  1  0  0  0  0
 15 12  2  0  0  0  0
 16 15  1  0  0  0  0
 17 16  2  0  0  0  0
 17 10  1  0  0  0  0
 18 15  1  0  0  0  0
 19 18  2  0  0  0  0
 20 19  1  0  0  0  0
 21 20  2  0  0  0  0
 22 21  1  0  0  0  0
 23 22  2  0  0  0  0
 23 18  1  0  0  0  0
 24  2  1  0  0  0  0
 25 24  2  0  0  0  0
 26 25  1  0  0  0  0
 27 26  2  0  0  0  0
 28 27  1  0  0  0  0
 29 28  2  0  0  0  0
 29 24  1  0  0  0  0
  1 30  1  0  0  0  0
  6 31  1  0  0  0  0
  7 32  1  0  0  0  0
  7 33  1  0  0  0  0
  8 34  1  0  0  0  0
  8 35  1  0  0  0  0
  9 36  1  0  0  0  0
  9 37  1  0  0  0  0
 13 38  1  0  0  0  0
 14 39  1  0  0  0  0
 16 40  1  0  0  0  0
 17 41  1  0  0  0  0
 19 42  1  0  0  0  0
 20 43  1  0  0  0  0
 21 44  1  0  0  0  0
 22 45  1  0  0  0  0
 23 46  1  0  0  0  0
 25 47  1  0  0  0  0
 26 48  1  0  0  0  0
 27 49  1  0  0  0  0
 28 50  1  0  0  0  0
 29 51  1  0  0  0  0
M  END
>  <energy>
134.82690456754293

$$$$
