C1CCCCN1
                    3D

 17 17  0  0  0  0  0  0  0  0999 V2000
    0.8641    0.9109    2.1985 C   0  0  0  0  0  0  0  0  0  0  0  0
    0.0988   -0.3823    2.5006 C   0  0  0  0  0  0  0  0  0  0  0  0
   -0.5884   -0.9197    1.2528 C   0  0  0  0  0  0  0  0  0  0  0  0
   -1.5135    0.1318    0.6331 C   0  0  0  0  0  0  0  0  0  0  0  0
   -1.2094    1.5548    1.1076 C   0  0  0  0  0  0  0  0  0  0  0  0
    0.2283    1.7724    1.1980 N   0  0  0  0  0  0  0  0  0  0  0  0
    0.9951    1.4671    3.1343 H   0  0  0  0  0  0  0  0  0  0  0  0
    1.8688    0.6646    1.8366 H   0  0  0  0  0  0  0  0  0  0  0  0
    0.7846   -1.1331    2.9086 H   0  0  0  0  0  0  0  0  0  0  0  0
   -0.6576   -0.1913    3.2728 H   0  0  0  0  0  0  0  0  0  0  0  0
    0.1748   -1.2070    0.5183 H   0  0  0  0  0  0  0  0  0  0  0  0
   -1.1547   -1.8282    1.4859 H   0  0  0  0  0  0  0  0  0  0  0  0
   -2.5558   -0.1047    0.8788 H   0  0  0  0  0  0  0  0  0  0  0  0
   -1.4321    0.0734   -0.4594 H   0  0  0  0  0  0  0  0  0  0  0  0
   -1.6440    2.2681    0.3984 H   0  0  0  0  0  0  0  0  0  0  0  0
   -1.6852    1.7494    2.0769 H   0  0  0  0  0  0  0  0  0  0  0  0
    0.4289    2.7488    1.4081 H   0  0  0  0  0  0  0  0  0  0  0  0
  2  1  1  0  0  0  0
  3  2  1  0  0  0  0
  4  3  1  0  0  0  0
  5  4  1  0  0  0  0
  6  5  1  0  0  0  0
  6  1  1  0  0  0  0
  1  7  1  0  0  0  0
  1  8  1  0  0  0  0
  2  9  1  0  0  0  0
  2 10  1  0  0  0  0
  3 11  1  0  0  0  0
  3 12  1  0  0  0  0
  4 13  1  0  0  0  0
  4 14  1  0  0  0  0
  5 15  1  0  0  0  0
  5 16  1  0  0  0  0
  6 17  1  0  0  0  0
M  END
>  <energy>
0.83471957681956965

$$$$
