c1cc(O)ccc1C#N
                    2D

 14 14  0  0  0  0  0  0  0  0999 V2000
    0.5124   -1.2321    0.0458 C   0  0  0  0  0  0  0  0  0  0  0  0
   -0.8600   -1.0944   -0.1707 C   0  0  0  0  0  0  0  0  0  0  0  0
   -1.4166    0.1754   -0.2824 C   0  0  0  0  0  0  0  0  0  0  0  0
   -2.7606    0.2603   -0.4899 O   0  0  0  0  0  0  0  0  0  0  0  0
   -0.6241    1.3154   -0.1838 C   0  0  0  0  0  0  0  0  0  0  0  0
    0.7500    1.1787    0.0329 C   0  0  0  0  0  0  0  0  0  0  0  0
    1.3217   -0.0949    0.1489 C   0  0  0  0  0  0  0  0  0  0  0  0
    2.7309   -0.2330    0.3742 C   0  0  0  0  0  0  0  0  0  0  0  0
    3.8717   -0.3412    0.5576 N   0  0  0  0  0  0  0  0  0  0  0  0
    0.9415   -2.2282    0.1337 H   0  0  0  0  0  0  0  0  0  0  0  0
   -1.4934   -1.9740   -0.2511 H   0  0  0  0  0  0  0  0  0  0  0  0
   -3.0137    1.1966   -0.5422 H   0  0  0  0  0  0  0  0  0  0  0  0
   -1.0533    2.3089   -0.2716 H   0  0  0  0  0  0  0  0  0  0  0  0
    1.3701    2.0700    0.1115 H   0  0  0  0  0  0  0  0  0  0  0  0
  2  1  2  0  0  0  0
  3  2  1  0  0  0  0
  4  3  1  0  0  0  0
  5  3  2  0  0  0  0
  6  5  1  0  0  0  0
  7  6  2  0  0  0  0
  7  1  1  0  0  0  0
  8  7  1  0  0  0  0
  9  8  3  0  0  0  0
  1 10  1  0  0  0  0
  2 11  1  0  0  0  0
  4 12  1  0  0  0  0
  5 13  1  0  0  0  0
  6 14  1  0  0  0  0
M  END
>  <energy>
18.487692471584573

$$$$
