N1(C=C[C@@H](C=C1)[C@@H]1C=CN(C=C1)CC#C)CC#C
                    3D

 34 35  0  0  0  0  0  0  0  0999 V2000
    1.6038    0.7864    1.2810 N   0  0  0  0  0  0  0  0  0  0  0  0
    2.5696    0.5631    0.3048 C   0  0  0  0  0  0  0  0  0  0  0  0
    2.5792   -0.5122   -0.4972 C   0  0  0  0  0  0  0  0  0  0  0  0
    1.5014   -1.5843   -0.3981 C   0  0  0  0  0  0  0  0  0  0  0  0
    0.5172   -1.2912    0.7263 C   0  0  0  0  0  0  0  0  0  0  0  0
    0.6044   -0.1676    1.4539 C   0  0  0  0  0  0  0  0  0  0  0  0
    0.7931   -1.8013   -1.7764 C   0  0  0  0  0  0  0  0  0  0  0  0
   -0.2214   -0.7115   -2.1007 C   0  0  0  0  0  0  0  0  0  0  0  0
   -1.5015   -1.0078   -2.3710 C   0  0  0  0  0  0  0  0  0  0  0  0
   -1.9991   -2.3071   -2.4117 N   0  0  0  0  0  0  0  0  0  0  0  0
   -1.1284   -3.3585   -2.1432 C   0  0  0  0  0  0  0  0  0  0  0  0
    0.1699   -3.1907   -1.8511 C   0  0  0  0  0  0  0  0  0  0  0  0
   -3.4090   -2.5637   -2.7472 C   0  0  0  0  0  0  0  0  0  0  0  0
   -4.2221   -2.7756   -1.5387 C   0  0  0  0  0  0  0  0  0  0  0  0
   -4.9022   -2.9488   -0.5636 C   0  0  0  0  0  0  0  0  0  0  0  0
    1.6178    2.0162    2.0895 C   0  0  0  0  0  0  0  0  0  0  0  0
    1.0565    3.1500    1.3332 C   0  0  0  0  0  0  0  0  0  0  0  0
    0.6013    4.0717    0.7107 C   0  0  0  0  0  0  0  0  0  0  0  0
    3.3326    1.3315    0.2263 H   0  0  0  0  0  0  0  0  0  0  0  0
    3.3642   -0.6346   -1.2352 H   0  0  0  0  0  0  0  0  0  0  0  0
    2.0282   -2.5108   -0.1265 H   0  0  0  0  0  0  0  0  0  0  0  0
   -0.2882   -1.9961    0.8980 H   0  0  0  0  0  0  0  0  0  0  0  0
   -0.1270    0.0550    2.2249 H   0  0  0  0  0  0  0  0  0  0  0  0
    1.5572   -1.7698   -2.5672 H   0  0  0  0  0  0  0  0  0  0  0  0
    0.1092    0.3213   -2.0735 H   0  0  0  0  0  0  0  0  0  0  0  0
   -2.2282   -0.2249   -2.5707 H   0  0  0  0  0  0  0  0  0  0  0  0
   -1.5744   -4.3497   -2.1878 H   0  0  0  0  0  0  0  0  0  0  0  0
    0.8034   -4.0516   -1.6670 H   0  0  0  0  0  0  0  0  0  0  0  0
   -3.4773   -3.4462   -3.3964 H   0  0  0  0  0  0  0  0  0  0  0  0
   -3.8225   -1.7297   -3.3285 H   0  0  0  0  0  0  0  0  0  0  0  0
   -5.5085   -3.1032    0.2993 H   0  0  0  0  0  0  0  0  0  0  0  0
    2.6452    2.2432    2.3998 H   0  0  0  0  0  0  0  0  0  0  0  0
    1.0463    1.8725    3.0139 H   0  0  0  0  0  0  0  0  0  0  0  0
    0.1895    4.8774    0.1477 H   0  0  0  0  0  0  0  0  0  0  0  0
  2  1  1  0  0  0  0
  3  2  2  0  0  0  0
  4  3  1  0  0  0  0
  5  4  1  0  0  0  0
  6  5  2  0  0  0  0
  6  1  1  0  0  0  0
  7  4  1  0  0  0  0
  8  7  1  0  0  0  0
  9  8  2  0  0  0  0
 10  9  1  0  0  0  0
 11 10  1  0  0  0  0
 12 11  2  0  0  0  0
 12  7  1  0  0  0  0
 13 10  1  0  0  0  0
 14 13  1  0  0  0  0
 15 14  3  0  0  0  0
 16  1  1  0  0  0  0
 17 16  1  0  0  0  0
 18 17  3  0  0  0  0
  2 19  1  0  0  0  0
  3 20  1  0  0  0  0
  4 21  1  0  0  0  0
  5 22  1  0  0  0  0
  6 23  1  0  0  0  0
  7 24  1  0  0  0  0
  8 25  1  0  0  0  0
  9 26  1  0  0  0  0
 11 27  1  0  0  0  0
 12 28  1  0  0  0  0
 13 29  1  0  0  0  0
 13 30  1  0  0  0  0
 15 31  1  0  0  0  0
 16 32  1  0  0  0  0
 16 33  1  0  0  0  0
 18 34  1  0  0  0  0
M  END
>  <energy>
42.517324750408413

$$$$
N1(C=C[C@@H](C=C1)[C@@H]1C=CN(C=C1)CC#C)CC#C
                    3D

 34 35  0  0  0  0  0  0  0  0999 V2000
   -2.2967   -2.2906   -1.4071 N   0  0  0  0  0  0  0  0  0  0  0  0
   -1.4267   -3.3547   -1.1851 C   0  0  0  0  0  0  0  0  0  0  0  0
   -0.0888   -3.2437   -1.2345 C   0  0  0  0  0  0  0  0  0  0  0  0
    0.5900   -1.9138   -1.5559 C   0  0  0  0  0  0  0  0  0  0  0  0
   -0.4330   -0.8128   -1.8095 C   0  0  0  0  0  0  0  0  0  0  0  0
   -1.7503   -1.0480   -1.7202 C   0  0  0  0  0  0  0  0  0  0  0  0
    1.6583   -1.5360   -0.4743 C   0  0  0  0  0  0  0  0  0  0  0  0
    1.0360   -1.1818    0.8649 C   0  0  0  0  0  0  0  0  0  0  0  0
    1.2664   -0.0009    1.4512 C   0  0  0  0  0  0  0  0  0  0  0  0
    2.1003    0.9803    0.9153 N   0  0  0  0  0  0  0  0  0  0  0  0
    2.7420    0.7129   -0.2912 C   0  0  0  0  0  0  0  0  0  0  0  0
    2.5905   -0.4357   -0.9724 C   0  0  0  0  0  0  0  0  0  0  0  0
    2.2487    2.2820    1.5950 C   0  0  0  0  0  0  0  0  0  0  0  0
    1.0052    3.0692    1.4795 C   0  0  0  0  0  0  0  0  0  0  0  0
   -0.0293    3.6723    1.3843 C   0  0  0  0  0  0  0  0  0  0  0  0
   -3.7571   -2.4703   -1.3095 C   0  0  0  0  0  0  0  0  0  0  0  0
   -4.3554   -2.8728   -2.5955 C   0  0  0  0  0  0  0  0  0  0  0  0
   -4.8698   -3.1887   -3.6345 C   0  0  0  0  0  0  0  0  0  0  0  0
   -1.9090   -4.3034   -0.9620 H   0  0  0  0  0  0  0  0  0  0  0  0
    0.5308   -4.1147   -1.0562 H   0  0  0  0  0  0  0  0  0  0  0  0
    1.1169   -2.0710   -2.5094 H   0  0  0  0  0  0  0  0  0  0  0  0
   -0.0722    0.1809   -2.0499 H   0  0  0  0  0  0  0  0  0  0  0  0
   -2.4672   -0.2474   -1.8823 H   0  0  0  0  0  0  0  0  0  0  0  0
    2.2926   -2.4168   -0.3051 H   0  0  0  0  0  0  0  0  0  0  0  0
    0.3665   -1.8987    1.3280 H   0  0  0  0  0  0  0  0  0  0  0  0
    0.7922    0.2715    2.3868 H   0  0  0  0  0  0  0  0  0  0  0  0
    3.3942    1.4999   -0.6554 H   0  0  0  0  0  0  0  0  0  0  0  0
    3.1373   -0.5967   -1.8965 H   0  0  0  0  0  0  0  0  0  0  0  0
    3.0911    2.8467    1.1734 H   0  0  0  0  0  0  0  0  0  0  0  0
    2.4960    2.1115    2.6526 H   0  0  0  0  0  0  0  0  0  0  0  0
   -0.9642    4.1769    1.3022 H   0  0  0  0  0  0  0  0  0  0  0  0
   -4.2262   -1.5395   -0.9697 H   0  0  0  0  0  0  0  0  0  0  0  0
   -3.9957   -3.2196   -0.5462 H   0  0  0  0  0  0  0  0  0  0  0  0
   -5.3305   -3.4639   -4.5573 H   0  0  0  0  0  0  0  0  0  0  0  0
  2  1  1  0  0  0  0
  3  2  2  0  0  0  0
  4  3  1  0  0  0  0
  5  4  1  0  0  0  0
  6  5  2  0  0  0  0
  6  1  1  0  0  0  0
  7  4  1  0  0  0  0
  8  7  1  0  0  0  0
  9  8  2  0  0  0  0
 10  9  1  0  0  0  0
 11 10  1  0  0  0  0
 12 11  2  0  0  0  0
 12  7  1  0  0  0  0
 13 10  1  0  0  0  0
 14 13  1  0  0  0  0
 15 14  3  0  0  0  0
 16  1  1  0  0  0  0
 17 16  1  0  0  0  0
 18 17  3  0  0  0  0
  2 19  1  0  0  0  0
  3 20  1  0  0  0  0
  4 21  1  0  0  0  0
  5 22  1  0  0  0  0
  6 23  1  0  0  0  0
  7 24  1  0  0  0  0
  8 25  1  0  0  0  0
  9 26  1  0  0  0  0
 11 27  1  0  0  0  0
 12 28  1  0  0  0  0
 13 29  1  0  0  0  0
 13 30  1  0  0  0  0
 15 31  1  0  0  0  0
 16 32  1  0  0  0  0
 16 33  1  0  0  0  0
 18 34  1  0  0  0  0
M  END
>  <energy>
42.932475237360471

$$$$
N1(C=C[C@@H](C=C1)[C@@H]1C=CN(C=C1)CC#C)CC#C
                    3D

 34 35  0  0  0  0  0  0  0  0999 V2000
   -2.3044   -2.6188   -1.4877 N   0  0  0  0  0  0  0  0  0  0  0  0
   -1.2701   -3.5314   -1.2934 C   0  0  0  0  0  0  0  0  0  0  0  0
    0.0297   -3.2078   -1.3703 C   0  0  0  0  0  0  0  0  0  0  0  0
    0.4782   -1.7847   -1.6816 C   0  0  0  0  0  0  0  0  0  0  0  0
   -0.7124   -0.8759   -1.9626 C   0  0  0  0  0  0  0  0  0  0  0  0
   -1.9744   -1.3169   -1.8471 C   0  0  0  0  0  0  0  0  0  0  0  0
    1.4313   -1.2193   -0.5729 C   0  0  0  0  0  0  0  0  0  0  0  0
    0.7378   -1.0189    0.7679 C   0  0  0  0  0  0  0  0  0  0  0  0
    0.6726    0.1879    1.3487 C   0  0  0  0  0  0  0  0  0  0  0  0
    1.2391    1.3367    0.8054 N   0  0  0  0  0  0  0  0  0  0  0  0
    1.9706    1.2161   -0.3726 C   0  0  0  0  0  0  0  0  0  0  0  0
    2.1151    0.0599   -1.0415 C   0  0  0  0  0  0  0  0  0  0  0  0
    1.0230    2.6529    1.4315 C   0  0  0  0  0  0  0  0  0  0  0  0
    2.2830    3.2399    1.9226 C   0  0  0  0  0  0  0  0  0  0  0  0
    3.3073    3.7337    2.3123 C   0  0  0  0  0  0  0  0  0  0  0  0
   -3.7119   -3.0189   -1.3116 C   0  0  0  0  0  0  0  0  0  0  0  0
   -4.2961   -3.5262   -2.5652 C   0  0  0  0  0  0  0  0  0  0  0  0
   -4.7880   -3.9412   -3.5813 C   0  0  0  0  0  0  0  0  0  0  0  0
   -1.5845   -4.5468   -1.0722 H   0  0  0  0  0  0  0  0  0  0  0  0
    0.7937   -3.9619   -1.2156 H   0  0  0  0  0  0  0  0  0  0  0  0
    1.0530   -1.8459   -2.6179 H   0  0  0  0  0  0  0  0  0  0  0  0
   -0.5166    0.1514   -2.2480 H   0  0  0  0  0  0  0  0  0  0  0  0
   -2.8152   -0.6554   -2.0328 H   0  0  0  0  0  0  0  0  0  0  0  0
    2.2304   -1.9541   -0.4056 H   0  0  0  0  0  0  0  0  0  0  0  0
    0.2745   -1.8775    1.2440 H   0  0  0  0  0  0  0  0  0  0  0  0
    0.1573    0.3242    2.2948 H   0  0  0  0  0  0  0  0  0  0  0  0
    2.4296    2.1373   -0.7208 H   0  0  0  0  0  0  0  0  0  0  0  0
    2.7086    0.0213   -1.9489 H   0  0  0  0  0  0  0  0  0  0  0  0
    0.3122    2.5752    2.2647 H   0  0  0  0  0  0  0  0  0  0  0  0
    0.5600    3.3261    0.6987 H   0  0  0  0  0  0  0  0  0  0  0  0
    4.2153    4.1705    2.6615 H   0  0  0  0  0  0  0  0  0  0  0  0
   -4.3015   -2.1676   -0.9470 H   0  0  0  0  0  0  0  0  0  0  0  0
   -3.7866   -3.7876   -0.5333 H   0  0  0  0  0  0  0  0  0  0  0  0
   -5.2223   -4.3062   -4.4836 H   0  0  0  0  0  0  0  0  0  0  0  0
  2  1  1  0  0  0  0
  3  2  2  0  0  0  0
  4  3  1  0  0  0  0
  5  4  1  0  0  0  0
  6  5  2  0  0  0  0
  6  1  1  0  0  0  0
  7  4  1  0  0  0  0
  8  7  1  0  0  0  0
  9  8  2  0  0  0  0
 10  9  1  0  0  0  0
 11 10  1  0  0  0  0
 12 11  2  0  0  0  0
 12  7  1  0  0  0  0
 13 10  1  0  0  0  0
 14 13  1  0  0  0  0
 15 14  3  0  0  0  0
 16  1  1  0  0  0  0
 17 16  1  0  0  0  0
 18 17  3  0  0  0  0
  2 19  1  0  0  0  0
  3 20  1  0  0  0  0
  4 21  1  0  0  0  0
  5 22  1  0  0  0  0
  6 23  1  0  0  0  0
  7 24  1  0  0  0  0
  8 25  1  0  0  0  0
  9 26  1  0  0  0  0
 11 27  1  0  0  0  0
 12 28  1  0  0  0  0
 13 29  1  0  0  0  0
 13 30  1  0  0  0  0
 15 31  1  0  0  0  0
 16 32  1  0  0  0  0
 16 33  1  0  0  0  0
 18 34  1  0  0  0  0
M  END
>  <energy>
44.012410128443754

$$$$
N1(C=C[C@@H](C=C1)[C@@H]1C=CN(C=C1)CC#C)CC#C
                    3D

 34 35  0  0  0  0  0  0  0  0999 V2000
   -1.9787   -2.7307   -2.0423 N   0  0  0  0  0  0  0  0  0  0  0  0
   -0.9490   -3.6492   -1.8430 C   0  0  0  0  0  0  0  0  0  0  0  0
    0.3449   -3.3102   -1.7256 C   0  0  0  0  0  0  0  0  0  0  0  0
    0.7972   -1.8575   -1.8085 C   0  0  0  0  0  0  0  0  0  0  0  0
   -0.3800   -0.9191   -2.0249 C   0  0  0  0  0  0  0  0  0  0  0  0
   -1.6347   -1.3814   -2.1389 C   0  0  0  0  0  0  0  0  0  0  0  0
    1.7042   -1.4804   -0.5954 C   0  0  0  0  0  0  0  0  0  0  0  0
    0.9395   -1.3755    0.7112 C   0  0  0  0  0  0  0  0  0  0  0  0
    0.9865   -0.2645    1.4582 C   0  0  0  0  0  0  0  0  0  0  0  0
    1.7340    0.8598    1.1242 N   0  0  0  0  0  0  0  0  0  0  0  0
    2.4802    0.8298   -0.0510 C   0  0  0  0  0  0  0  0  0  0  0  0
    2.5161   -0.2228   -0.8814 C   0  0  0  0  0  0  0  0  0  0  0  0
    1.7822    2.0246    2.0223 C   0  0  0  0  0  0  0  0  0  0  0  0
    0.8403    3.0809    1.6079 C   0  0  0  0  0  0  0  0  0  0  0  0
    0.0796    3.9634    1.3194 C   0  0  0  0  0  0  0  0  0  0  0  0
   -3.3399   -3.2136   -2.3701 C   0  0  0  0  0  0  0  0  0  0  0  0
   -4.4123   -2.3570   -1.8352 C   0  0  0  0  0  0  0  0  0  0  0  0
   -5.2797   -1.6295   -1.4261 C   0  0  0  0  0  0  0  0  0  0  0  0
   -1.2554   -4.6931   -1.7983 H   0  0  0  0  0  0  0  0  0  0  0  0
    1.0996   -4.0787   -1.5887 H   0  0  0  0  0  0  0  0  0  0  0  0
    1.4139   -1.7907   -2.7166 H   0  0  0  0  0  0  0  0  0  0  0  0
   -0.1863    0.1449   -2.1080 H   0  0  0  0  0  0  0  0  0  0  0  0
   -2.4615   -0.6985   -2.3205 H   0  0  0  0  0  0  0  0  0  0  0  0
    2.4413   -2.2872   -0.4590 H   0  0  0  0  0  0  0  0  0  0  0  0
    0.3455   -2.2228    1.0289 H   0  0  0  0  0  0  0  0  0  0  0  0
    0.4332   -0.1912    2.3885 H   0  0  0  0  0  0  0  0  0  0  0  0
    3.0557    1.7302   -0.2529 H   0  0  0  0  0  0  0  0  0  0  0  0
    3.1387   -0.1993   -1.7704 H   0  0  0  0  0  0  0  0  0  0  0  0
    2.8049    2.4198    2.0529 H   0  0  0  0  0  0  0  0  0  0  0  0
    1.5433    1.7173    3.0504 H   0  0  0  0  0  0  0  0  0  0  0  0
   -0.6091    4.7458    1.0956 H   0  0  0  0  0  0  0  0  0  0  0  0
   -3.4837   -4.2271   -1.9764 H   0  0  0  0  0  0  0  0  0  0  0  0
   -3.4292   -3.2835   -3.4639 H   0  0  0  0  0  0  0  0  0  0  0  0
   -6.0405   -0.9744   -1.0719 H   0  0  0  0  0  0  0  0  0  0  0  0
  2  1  1  0  0  0  0
  3  2  2  0  0  0  0
  4  3  1  0  0  0  0
  5  4  1  0  0  0  0
  6  5  2  0  0  0  0
  6  1  1  0  0  0  0
  7  4  1  0  0  0  0
  8  7  1  0  0  0  0
  9  8  2  0  0  0  0
 10  9  1  0  0  0  0
 11 10  1  0  0  0  0
 12 11  2  0  0  0  0
 12  7  1  0  0  0  0
 13 10  1  0  0  0  0
 14 13  1  0  0  0  0
 15 14  3  0  0  0  0
 16  1  1  0  0  0  0
 17 16  1  0  0  0  0
 18 17  3  0  0  0  0
  2 19  1  0  0  0  0
  3 20  1  0  0  0  0
  4 21  1  0  0  0  0
  5 22  1  0  0  0  0
  6 23  1  0  0  0  0
  7 24  1  0  0  0  0
  8 25  1  0  0  0  0
  9 26  1  0  0  0  0
 11 27  1  0  0  0  0
 12 28  1  0  0  0  0
 13 29  1  0  0  0  0
 13 30  1  0  0  0  0
 15 31  1  0  0  0  0
 16 32  1  0  0  0  0
 16 33  1  0  0  0  0
 18 34  1  0  0  0  0
M  END
>  <energy>
44.842227909926251

$$$$
N1(C=C[C@@H](C=C1)[C@@H]1C=CN(C=C1)CC#C)CC#C
                    3D

 34 35  0  0  0  0  0  0  0  0999 V2000
   -2.1005   -3.0914   -2.2062 N   0  0  0  0  0  0  0  0  0  0  0  0
   -1.8074   -1.8258   -2.6921 C   0  0  0  0  0  0  0  0  0  0  0  0
   -1.1488   -0.8914   -1.9966 C   0  0  0  0  0  0  0  0  0  0  0  0
   -0.6231   -1.1530   -0.5807 C   0  0  0  0  0  0  0  0  0  0  0  0
   -1.0798   -2.5296   -0.0897 C   0  0  0  0  0  0  0  0  0  0  0  0
   -1.7460   -3.3831   -0.8894 C   0  0  0  0  0  0  0  0  0  0  0  0
    0.9416   -0.9796   -0.4775 C   0  0  0  0  0  0  0  0  0  0  0  0
    1.4422   -1.0493    0.9673 C   0  0  0  0  0  0  0  0  0  0  0  0
    2.0895   -0.0198    1.5409 C   0  0  0  0  0  0  0  0  0  0  0  0
    2.3897    1.1693    0.8829 N   0  0  0  0  0  0  0  0  0  0  0  0
    2.0430    1.2778   -0.4536 C   0  0  0  0  0  0  0  0  0  0  0  0
    1.4188    0.3119   -1.1429 C   0  0  0  0  0  0  0  0  0  0  0  0
    3.1463    2.2369    1.5565 C   0  0  0  0  0  0  0  0  0  0  0  0
    2.2465    3.2901    2.0598 C   0  0  0  0  0  0  0  0  0  0  0  0
    1.5211    4.1504    2.4860 C   0  0  0  0  0  0  0  0  0  0  0  0
   -2.8297   -4.0686   -3.0399 C   0  0  0  0  0  0  0  0  0  0  0  0
   -4.2593   -3.6999   -3.1689 C   0  0  0  0  0  0  0  0  0  0  0  0
   -5.4137   -3.3777   -3.2554 C   0  0  0  0  0  0  0  0  0  0  0  0
   -2.1765   -1.6232   -3.6953 H   0  0  0  0  0  0  0  0  0  0  0  0
   -0.9955    0.0880   -2.4349 H   0  0  0  0  0  0  0  0  0  0  0  0
   -1.0944   -0.4033    0.0745 H   0  0  0  0  0  0  0  0  0  0  0  0
   -0.8802   -2.8049    0.9395 H   0  0  0  0  0  0  0  0  0  0  0  0
   -2.0619   -4.3571   -0.5264 H   0  0  0  0  0  0  0  0  0  0  0  0
    1.4146   -1.8041   -1.0207 H   0  0  0  0  0  0  0  0  0  0  0  0
    1.2847   -1.9648    1.5275 H   0  0  0  0  0  0  0  0  0  0  0  0
    2.4384   -0.0838    2.5709 H   0  0  0  0  0  0  0  0  0  0  0  0
    2.3247    2.2171   -0.9275 H   0  0  0  0  0  0  0  0  0  0  0  0
    1.2443    0.4466   -2.2074 H   0  0  0  0  0  0  0  0  0  0  0  0
    3.8788    2.6668    0.8588 H   0  0  0  0  0  0  0  0  0  0  0  0
    3.7348    1.8260    2.3892 H   0  0  0  0  0  0  0  0  0  0  0  0
    0.8698    4.9000    2.8735 H   0  0  0  0  0  0  0  0  0  0  0  0
   -2.7281   -5.0794   -2.6223 H   0  0  0  0  0  0  0  0  0  0  0  0
   -2.3598   -4.1111   -4.0321 H   0  0  0  0  0  0  0  0  0  0  0  0
   -6.4337   -3.0606   -3.3192 H   0  0  0  0  0  0  0  0  0  0  0  0
  2  1  1  0  0  0  0
  3  2  2  0  0  0  0
  4  3  1  0  0  0  0
  5  4  1  0  0  0  0
  6  5  2  0  0  0  0
  6  1  1  0  0  0  0
  7  4  1  0  0  0  0
  8  7  1  0  0  0  0
  9  8  2  0  0  0  0
 10  9  1  0  0  0  0
 11 10  1  0  0  0  0
 12 11  2  0  0  0  0
 12  7  1  0  0  0  0
 13 10  1  0  0  0  0
 14 13  1  0  0  0  0
 15 14  3  0  0  0  0
 16  1  1  0  0  0  0
 17 16  1  0  0  0  0
 18 17  3  0  0  0  0
  2 19  1  0  0  0  0
  3 20  1  0  0  0  0
  4 21  1  0  0  0  0
  5 22  1  0  0  0  0
  6 23  1  0  0  0  0
  7 24  1  0  0  0  0
  8 25  1  0  0  0  0
  9 26  1  0  0  0  0
 11 27  1  0  0  0  0
 12 28  1  0  0  0  0
 13 29  1  0  0  0  0
 13 30  1  0  0  0  0
 15 31  1  0  0  0  0
 16 32  1  0  0  0  0
 16 33  1  0  0  0  0
 18 34  1  0  0  0  0
M  END
>  <energy>
45.334867323686119

$$$$
N1(C=C[C@@H](C=C1)[C@@H]1C=CN(C=C1)CC#C)CC#C
                    3D

 34 35  0  0  0  0  0  0  0  0999 V2000
    2.3012    1.0821    1.0742 N   0  0  0  0  0  0  0  0  0  0  0  0
    1.9626    1.1764   -0.2731 C   0  0  0  0  0  0  0  0  0  0  0  0
    1.2780    0.2334   -0.9362 C   0  0  0  0  0  0  0  0  0  0  0  0
    0.8130   -1.0476   -0.2589 C   0  0  0  0  0  0  0  0  0  0  0  0
    1.2919   -1.1040    1.1912 C   0  0  0  0  0  0  0  0  0  0  0  0
    1.9648   -0.0862    1.7502 C   0  0  0  0  0  0  0  0  0  0  0  0
   -0.7345   -1.3173   -0.3212 C   0  0  0  0  0  0  0  0  0  0  0  0
   -0.9756   -2.8246   -0.3906 C   0  0  0  0  0  0  0  0  0  0  0  0
   -1.6277   -3.3847   -1.4208 C   0  0  0  0  0  0  0  0  0  0  0  0
   -2.1849   -2.6561   -2.4688 N   0  0  0  0  0  0  0  0  0  0  0  0
   -2.1121   -1.2694   -2.4135 C   0  0  0  0  0  0  0  0  0  0  0  0
   -1.4662   -0.5985   -1.4479 C   0  0  0  0  0  0  0  0  0  0  0  0
   -2.8596   -3.3368   -3.5894 C   0  0  0  0  0  0  0  0  0  0  0  0
   -4.0900   -4.0223   -3.1532 C   0  0  0  0  0  0  0  0  0  0  0  0
   -5.0811   -4.5987   -2.7941 C   0  0  0  0  0  0  0  0  0  0  0  0
    3.1432    2.1100    1.7167 C   0  0  0  0  0  0  0  0  0  0  0  0
    2.5409    3.4542    1.6501 C   0  0  0  0  0  0  0  0  0  0  0  0
    2.0666    4.5569    1.5860 C   0  0  0  0  0  0  0  0  0  0  0  0
    2.3060    2.0774   -0.7729 H   0  0  0  0  0  0  0  0  0  0  0  0
    1.0762    0.3541   -1.9955 H   0  0  0  0  0  0  0  0  0  0  0  0
    1.3318   -1.8618   -0.7871 H   0  0  0  0  0  0  0  0  0  0  0  0
    1.0712   -1.9909    1.7755 H   0  0  0  0  0  0  0  0  0  0  0  0
    2.2915   -0.1363    2.7852 H   0  0  0  0  0  0  0  0  0  0  0  0
   -1.1994   -0.9656    0.6111 H   0  0  0  0  0  0  0  0  0  0  0  0
   -0.5859   -3.4480    0.4067 H   0  0  0  0  0  0  0  0  0  0  0  0
   -1.7713   -4.4596   -1.4815 H   0  0  0  0  0  0  0  0  0  0  0  0
   -2.6325   -0.7424   -3.2085 H   0  0  0  0  0  0  0  0  0  0  0  0
   -1.4705    0.4868   -1.4410 H   0  0  0  0  0  0  0  0  0  0  0  0
   -2.1686   -4.0624   -4.0358 H   0  0  0  0  0  0  0  0  0  0  0  0
   -3.1061   -2.6226   -4.3856 H   0  0  0  0  0  0  0  0  0  0  0  0
   -5.9540   -5.1125   -2.4613 H   0  0  0  0  0  0  0  0  0  0  0  0
    4.1263    2.1177    1.2300 H   0  0  0  0  0  0  0  0  0  0  0  0
    3.3227    1.8620    2.7707 H   0  0  0  0  0  0  0  0  0  0  0  0
    1.6428    5.5327    1.5230 H   0  0  0  0  0  0  0  0  0  0  0  0
  2  1  1  0  0  0  0
  3  2  2  0  0  0  0
  4  3  1  0  0  0  0
  5  4  1  0  0  0  0
  6  5  2  0  0  0  0
  6  1  1  0  0  0  0
  7  4  1  0  0  0  0
  8  7  1  0  0  0  0
  9  8  2  0  0  0  0
 10  9  1  0  0  0  0
 11 10  1  0  0  0  0
 12 11  2  0  0  0  0
 12  7  1  0  0  0  0
 13 10  1  0  0  0  0
 14 13  1  0  0  0  0
 15 14  3  0  0  0  0
 16  1  1  0  0  0  0
 17 16  1  0  0  0  0
 18 17  3  0  0  0  0
  2 19  1  0  0  0  0
  3 20  1  0  0  0  0
  4 21  1  0  0  0  0
  5 22  1  0  0  0  0
  6 23  1  0  0  0  0
  7 24  1  0  0  0  0
  8 25  1  0  0  0  0
  9 26  1  0  0  0  0
 11 27  1  0  0  0  0
 12 28  1  0  0  0  0
 13 29  1  0  0  0  0
 13 30  1  0  0  0  0
 15 31  1  0  0  0  0
 16 32  1  0  0  0  0
 16 33  1  0  0  0  0
 18 34  1  0  0  0  0
M  END
>  <energy>
47.418820790529224

$$$$
