OC(CCl)COC(O)=O
                    3D

 16 15  0  0  0  0  0  0  0  0999 V2000
   -0.8870   -1.2425    0.1874 O   0  0  0  0  0  0  0  0  0  0  0  0
   -0.8782    0.1837    0.3352 C   0  0  0  0  0  0  0  0  0  0  0  0
   -0.2433    0.5630    1.6762 C   0  0  0  0  0  0  0  0  0  0  0  0
    1.4641    0.0323    1.7215 Cl  0  0  0  0  0  0  0  0  0  0  0  0
   -2.3231    0.6885    0.2259 C   0  0  0  0  0  0  0  0  0  0  0  0
   -2.3442    2.0684   -0.1764 O   0  0  0  0  0  0  0  0  0  0  0  0
   -2.5218    2.9696    0.8080 C   0  0  0  0  0  0  0  0  0  0  0  0
   -2.4837    4.1860    0.2502 O   0  0  0  0  0  0  0  0  0  0  0  0
   -2.6572    2.7438    1.9969 O   0  0  0  0  0  0  0  0  0  0  0  0
    0.0371   -1.5376    0.2985 H   0  0  0  0  0  0  0  0  0  0  0  0
   -0.2902    0.6026   -0.4894 H   0  0  0  0  0  0  0  0  0  0  0  0
   -0.7536    0.0509    2.4979 H   0  0  0  0  0  0  0  0  0  0  0  0
   -0.2543    1.6397    1.8494 H   0  0  0  0  0  0  0  0  0  0  0  0
   -2.8559    0.1273   -0.5525 H   0  0  0  0  0  0  0  0  0  0  0  0
   -2.8801    0.5089    1.1542 H   0  0  0  0  0  0  0  0  0  0  0  0
   -2.3618    4.0329   -0.7058 H   0  0  0  0  0  0  0  0  0  0  0  0
  2  1  1  0  0  0  0
  3  2  1  0  0  0  0
  4  3  1  0  0  0  0
  5  2  1  0  0  0  0
  6  5  1  0  0  0  0
  7  6  1  0  0  0  0
  8  7  1  0  0  0  0
  9  7  2  0  0  0  0
  1 10  1  0  0  0  0
  2 11  1  0  0  0  0
  3 12  1  0  0  0  0
  3 13  1  0  0  0  0
  5 14  1  0  0  0  0
  5 15  1  0  0  0  0
  8 16  1  0  0  0  0
M  END
>  <energy>
-32.32763286318594

$$$$
OC(CCl)COC(O)=O
                    3D

 16 15  0  0  0  0  0  0  0  0999 V2000
   -1.1088   -1.2996    0.5328 O   0  0  0  0  0  0  0  0  0  0  0  0
   -0.9220    0.0150    1.0652 C   0  0  0  0  0  0  0  0  0  0  0  0
    0.4799    0.5288    0.7294 C   0  0  0  0  0  0  0  0  0  0  0  0
    1.7163   -0.5059    1.5014 Cl  0  0  0  0  0  0  0  0  0  0  0  0
   -2.0006    0.9341    0.4823 C   0  0  0  0  0  0  0  0  0  0  0  0
   -1.9226    2.2267    1.0998 O   0  0  0  0  0  0  0  0  0  0  0  0
   -2.8216    3.1100    0.6099 C   0  0  0  0  0  0  0  0  0  0  0  0
   -2.6628    4.2597    1.2806 O   0  0  0  0  0  0  0  0  0  0  0  0
   -3.6323    2.9240   -0.2766 O   0  0  0  0  0  0  0  0  0  0  0  0
   -0.3811   -1.8527    0.8768 H   0  0  0  0  0  0  0  0  0  0  0  0
   -1.0458   -0.0367    2.1538 H   0  0  0  0  0  0  0  0  0  0  0  0
    0.6388    1.5492    1.0880 H   0  0  0  0  0  0  0  0  0  0  0  0
    0.6673    0.4904   -0.3477 H   0  0  0  0  0  0  0  0  0  0  0  0
   -1.8705    1.0242   -0.6039 H   0  0  0  0  0  0  0  0  0  0  0  0
   -2.9900    0.4978    0.6688 H   0  0  0  0  0  0  0  0  0  0  0  0
   -1.9540    4.0896    1.9280 H   0  0  0  0  0  0  0  0  0  0  0  0
  2  1  1  0  0  0  0
  3  2  1  0  0  0  0
  4  3  1  0  0  0  0
  5  2  1  0  0  0  0
  6  5  1  0  0  0  0
  7  6  1  0  0  0  0
  8  7  1  0  0  0  0
  9  7  2  0  0  0  0
  1 10  1  0  0  0  0
  2 11  1  0  0  0  0
  3 12  1  0  0  0  0
  3 13  1  0  0  0  0
  5 14  1  0  0  0  0
  5 15  1  0  0  0  0
  8 16  1  0  0  0  0
M  END
>  <energy>
-32.252075538575369

$$$$
OC(CCl)COC(O)=O
                    3D

 16 15  0  0  0  0  0  0  0  0999 V2000
   -1.1046   -1.3173    0.6175 O   0  0  0  0  0  0  0  0  0  0  0  0
   -0.7917    0.0630    0.4157 C   0  0  0  0  0  0  0  0  0  0  0  0
    0.2676    0.5262    1.4197 C   0  0  0  0  0  0  0  0  0  0  0  0
    1.7705   -0.4207    1.2256 Cl  0  0  0  0  0  0  0  0  0  0  0  0
   -2.0767    0.8802    0.5747 C   0  0  0  0  0  0  0  0  0  0  0  0
   -1.7898    2.2729    0.4003 O   0  0  0  0  0  0  0  0  0  0  0  0
   -2.8218    3.0846    0.7204 C   0  0  0  0  0  0  0  0  0  0  0  0
   -2.4034    4.3435    0.5406 O   0  0  0  0  0  0  0  0  0  0  0  0
   -3.9245    2.7602    1.1105 O   0  0  0  0  0  0  0  0  0  0  0  0
   -0.2616   -1.8088    0.5749 H   0  0  0  0  0  0  0  0  0  0  0  0
   -0.4094    0.1775   -0.6057 H   0  0  0  0  0  0  0  0  0  0  0  0
   -0.0732    0.3772    2.4499 H   0  0  0  0  0  0  0  0  0  0  0  0
    0.5271    1.5811    1.2801 H   0  0  0  0  0  0  0  0  0  0  0  0
   -2.8108    0.5637   -0.1758 H   0  0  0  0  0  0  0  0  0  0  0  0
   -2.5095    0.6976    1.5674 H   0  0  0  0  0  0  0  0  0  0  0  0
   -1.4828    4.2677    0.2260 H   0  0  0  0  0  0  0  0  0  0  0  0
  2  1  1  0  0  0  0
  3  2  1  0  0  0  0
  4  3  1  0  0  0  0
  5  2  1  0  0  0  0
  6  5  1  0  0  0  0
  7  6  1  0  0  0  0
  8  7  1  0  0  0  0
  9  7  2  0  0  0  0
  1 10  1  0  0  0  0
  2 11  1  0  0  0  0
  3 12  1  0  0  0  0
  3 13  1  0  0  0  0
  5 14  1  0  0  0  0
  5 15  1  0  0  0  0
  8 16  1  0  0  0  0
M  END
>  <energy>
-31.941832847774531

$$$$
OC(CCl)COC(O)=O
                    3D

 16 15  0  0  0  0  0  0  0  0999 V2000
   -1.6086   -1.0961    0.8402 O   0  0  0  0  0  0  0  0  0  0  0  0
   -0.8430   -0.2221    0.0031 C   0  0  0  0  0  0  0  0  0  0  0  0
    0.5394    0.0380    0.6162 C   0  0  0  0  0  0  0  0  0  0  0  0
    0.4890    0.8909    2.1804 Cl  0  0  0  0  0  0  0  0  0  0  0  0
   -1.6496    1.0438   -0.3167 C   0  0  0  0  0  0  0  0  0  0  0  0
   -2.1806    1.6013    0.8938 O   0  0  0  0  0  0  0  0  0  0  0  0
   -2.4329    2.9226    0.8504 C   0  0  0  0  0  0  0  0  0  0  0  0
   -2.9164    3.3217    2.0359 O   0  0  0  0  0  0  0  0  0  0  0  0
   -2.2718    3.6926   -0.0783 O   0  0  0  0  0  0  0  0  0  0  0  0
   -1.8919   -0.5568    1.6061 H   0  0  0  0  0  0  0  0  0  0  0  0
   -0.6802   -0.7594   -0.9385 H   0  0  0  0  0  0  0  0  0  0  0  0
    1.1541    0.6374   -0.0622 H   0  0  0  0  0  0  0  0  0  0  0  0
    1.0506   -0.9107    0.8054 H   0  0  0  0  0  0  0  0  0  0  0  0
   -1.0217    1.7583   -0.8618 H   0  0  0  0  0  0  0  0  0  0  0  0
   -2.5089    0.7722   -0.9415 H   0  0  0  0  0  0  0  0  0  0  0  0
   -3.0520    4.2804    1.9143 H   0  0  0  0  0  0  0  0  0  0  0  0
  2  1  1  0  0  0  0
  3  2  1  0  0  0  0
  4  3  1  0  0  0  0
  5  2  1  0  0  0  0
  6  5  1  0  0  0  0
  7  6  1  0  0  0  0
  8  7  1  0  0  0  0
  9  7  2  0  0  0  0
  1 10  1  0  0  0  0
  2 11  1  0  0  0  0
  3 12  1  0  0  0  0
  3 13  1  0  0  0  0
  5 14  1  0  0  0  0
  5 15  1  0  0  0  0
  8 16  1  0  0  0  0
M  END
>  <energy>
-31.720520693589716

$$$$
OC(CCl)COC(O)=O
                    3D

 16 15  0  0  0  0  0  0  0  0999 V2000
   -1.8618   -1.0893    0.0862 O   0  0  0  0  0  0  0  0  0  0  0  0
   -0.7936   -0.1442    0.2638 C   0  0  0  0  0  0  0  0  0  0  0  0
   -0.5023   -0.0115    1.7620 C   0  0  0  0  0  0  0  0  0  0  0  0
    0.9744    0.9254    2.0778 Cl  0  0  0  0  0  0  0  0  0  0  0  0
   -1.1856    1.1744   -0.4130 C   0  0  0  0  0  0  0  0  0  0  0  0
   -2.3962    1.6797    0.1864 O   0  0  0  0  0  0  0  0  0  0  0  0
   -2.2956    2.8702    0.8125 C   0  0  0  0  0  0  0  0  0  0  0  0
   -3.5018    3.2234    1.2817 O   0  0  0  0  0  0  0  0  0  0  0  0
   -1.3120    3.5648    0.9676 O   0  0  0  0  0  0  0  0  0  0  0  0
   -2.6946   -0.6222    0.2905 H   0  0  0  0  0  0  0  0  0  0  0  0
    0.0812   -0.5665   -0.2469 H   0  0  0  0  0  0  0  0  0  0  0  0
   -0.3758   -1.0021    2.2159 H   0  0  0  0  0  0  0  0  0  0  0  0
   -1.3310    0.4686    2.2928 H   0  0  0  0  0  0  0  0  0  0  0  0
   -0.3605    1.8926   -0.3875 H   0  0  0  0  0  0  0  0  0  0  0  0
   -1.4237    0.9831   -1.4667 H   0  0  0  0  0  0  0  0  0  0  0  0
   -3.3456    4.1010    1.6829 H   0  0  0  0  0  0  0  0  0  0  0  0
  2  1  1  0  0  0  0
  3  2  1  0  0  0  0
  4  3  1  0  0  0  0
  5  2  1  0  0  0  0
  6  5  1  0  0  0  0
  7  6  1  0  0  0  0
  8  7  1  0  0  0  0
  9  7  2  0  0  0  0
  1 10  1  0  0  0  0
  2 11  1  0  0  0  0
  3 12  1  0  0  0  0
  3 13  1  0  0  0  0
  5 14  1  0  0  0  0
  5 15  1  0  0  0  0
  8 16  1  0  0  0  0
M  END
>  <energy>
-31.553338349309371

$$$$
OC(CCl)COC(O)=O
                    3D

 16 15  0  0  0  0  0  0  0  0999 V2000
   -0.6340   -0.7737   -0.3783 O   0  0  0  0  0  0  0  0  0  0  0  0
   -1.3622   -0.4064    0.8013 C   0  0  0  0  0  0  0  0  0  0  0  0
   -0.4025    0.0966    1.8862 C   0  0  0  0  0  0  0  0  0  0  0  0
    0.7401    1.3330    1.2839 Cl  0  0  0  0  0  0  0  0  0  0  0  0
   -2.5101    0.5419    0.4261 C   0  0  0  0  0  0  0  0  0  0  0  0
   -2.0413    1.8206   -0.0312 O   0  0  0  0  0  0  0  0  0  0  0  0
   -2.2167    2.8419    0.8364 C   0  0  0  0  0  0  0  0  0  0  0  0
   -1.7617    3.9538    0.2443 O   0  0  0  0  0  0  0  0  0  0  0  0
   -2.6860    2.7851    1.9564 O   0  0  0  0  0  0  0  0  0  0  0  0
   -0.0928    0.0005   -0.6264 H   0  0  0  0  0  0  0  0  0  0  0  0
   -1.8221   -1.3311    1.1702 H   0  0  0  0  0  0  0  0  0  0  0  0
    0.2236   -0.7326    2.2304 H   0  0  0  0  0  0  0  0  0  0  0  0
   -0.9401    0.5053    2.7469 H   0  0  0  0  0  0  0  0  0  0  0  0
   -3.0658    0.1120   -0.4151 H   0  0  0  0  0  0  0  0  0  0  0  0
   -3.2157    0.6327    1.2593 H   0  0  0  0  0  0  0  0  0  0  0  0
   -1.4271    3.6608   -0.6241 H   0  0  0  0  0  0  0  0  0  0  0  0
  2  1  1  0  0  0  0
  3  2  1  0  0  0  0
  4  3  1  0  0  0  0
  5  2  1  0  0  0  0
  6  5  1  0  0  0  0
  7  6  1  0  0  0  0
  8  7  1  0  0  0  0
  9  7  2  0  0  0  0
  1 10  1  0  0  0  0
  2 11  1  0  0  0  0
  3 12  1  0  0  0  0
  3 13  1  0  0  0  0
  5 14  1  0  0  0  0
  5 15  1  0  0  0  0
  8 16  1  0  0  0  0
M  END
>  <energy>
-31.365092914241274

$$$$
OC(CCl)COC(O)=O
                    3D

 16 15  0  0  0  0  0  0  0  0999 V2000
   -1.4404   -0.7202   -0.6055 O   0  0  0  0  0  0  0  0  0  0  0  0
   -0.9972   -0.3219    0.7025 C   0  0  0  0  0  0  0  0  0  0  0  0
    0.4727    0.0959    0.6099 C   0  0  0  0  0  0  0  0  0  0  0  0
    1.1705    0.4837    2.1961 Cl  0  0  0  0  0  0  0  0  0  0  0  0
   -1.9278    0.7761    1.2340 C   0  0  0  0  0  0  0  0  0  0  0  0
   -1.8129    1.9395    0.3932 O   0  0  0  0  0  0  0  0  0  0  0  0
   -2.5962    2.9665    0.7958 C   0  0  0  0  0  0  0  0  0  0  0  0
   -2.3758    3.9933   -0.0367 O   0  0  0  0  0  0  0  0  0  0  0  0
   -3.3674    2.9799    1.7355 O   0  0  0  0  0  0  0  0  0  0  0  0
   -1.6187    0.0905   -1.1156 H   0  0  0  0  0  0  0  0  0  0  0  0
   -1.0865   -1.2059    1.3434 H   0  0  0  0  0  0  0  0  0  0  0  0
    0.5995    0.9669   -0.0424 H   0  0  0  0  0  0  0  0  0  0  0  0
    1.0685   -0.7111    0.1696 H   0  0  0  0  0  0  0  0  0  0  0  0
   -2.9644    0.4205    1.1920 H   0  0  0  0  0  0  0  0  0  0  0  0
   -1.6737    1.0380    2.2667 H   0  0  0  0  0  0  0  0  0  0  0  0
   -1.6979    3.6868   -0.6663 H   0  0  0  0  0  0  0  0  0  0  0  0
  2  1  1  0  0  0  0
  3  2  1  0  0  0  0
  4  3  1  0  0  0  0
  5  2  1  0  0  0  0
  6  5  1  0  0  0  0
  7  6  1  0  0  0  0
  8  7  1  0  0  0  0
  9  7  2  0  0  0  0
  1 10  1  0  0  0  0
  2 11  1  0  0  0  0
  3 12  1  0  0  0  0
  3 13  1  0  0  0  0
  5 14  1  0  0  0  0
  5 15  1  0  0  0  0
  8 16  1  0  0  0  0
M  END
>  <energy>
-30.679887752170174

$$$$
OC(CCl)COC(O)=O
                    3D

 16 15  0  0  0  0  0  0  0  0999 V2000
   -1.0526   -1.4677    0.5426 O   0  0  0  0  0  0  0  0  0  0  0  0
   -0.9443   -0.1403    0.0198 C   0  0  0  0  0  0  0  0  0  0  0  0
    0.4242    0.4565    0.3642 C   0  0  0  0  0  0  0  0  0  0  0  0
    0.6360    0.6575    2.1233 Cl  0  0  0  0  0  0  0  0  0  0  0  0
   -2.1346    0.7024    0.4939 C   0  0  0  0  0  0  0  0  0  0  0  0
   -1.9645    2.0692    0.0947 O   0  0  0  0  0  0  0  0  0  0  0  0
   -2.4985    2.9712    0.9492 C   0  0  0  0  0  0  0  0  0  0  0  0
   -2.2266    4.1919    0.4640 O   0  0  0  0  0  0  0  0  0  0  0  0
   -3.1138    2.7521    1.9732 O   0  0  0  0  0  0  0  0  0  0  0  0
   -0.8018   -1.4296    1.4861 H   0  0  0  0  0  0  0  0  0  0  0  0
   -0.9962   -0.2238   -1.0716 H   0  0  0  0  0  0  0  0  0  0  0  0
    0.5668    1.4333   -0.1064 H   0  0  0  0  0  0  0  0  0  0  0  0
    1.2237   -0.2119    0.0310 H   0  0  0  0  0  0  0  0  0  0  0  0
   -3.0523    0.3203    0.0322 H   0  0  0  0  0  0  0  0  0  0  0  0
   -2.2615    0.5899    1.5772 H   0  0  0  0  0  0  0  0  0  0  0  0
   -1.7284    4.0461   -0.3603 H   0  0  0  0  0  0  0  0  0  0  0  0
  2  1  1  0  0  0  0
  3  2  1  0  0  0  0
  4  3  1  0  0  0  0
  5  2  1  0  0  0  0
  6  5  1  0  0  0  0
  7  6  1  0  0  0  0
  8  7  1  0  0  0  0
  9  7  2  0  0  0  0
  1 10  1  0  0  0  0
  2 11  1  0  0  0  0
  3 12  1  0  0  0  0
  3 13  1  0  0  0  0
  5 14  1  0  0  0  0
  5 15  1  0  0  0  0
  8 16  1  0  0  0  0
M  END
>  <energy>
-30.584912605447432

$$$$
OC(CCl)COC(O)=O
                    3D

 16 15  0  0  0  0  0  0  0  0999 V2000
   -0.9716   -1.3199    0.0162 O   0  0  0  0  0  0  0  0  0  0  0  0
   -1.2799   -0.2985    0.9688 C   0  0  0  0  0  0  0  0  0  0  0  0
   -0.1271   -0.0711    1.9569 C   0  0  0  0  0  0  0  0  0  0  0  0
    1.3649    0.4968    1.1669 Cl  0  0  0  0  0  0  0  0  0  0  0  0
   -1.7162    0.9686    0.2235 C   0  0  0  0  0  0  0  0  0  0  0  0
   -2.0891    1.9845    1.1650 O   0  0  0  0  0  0  0  0  0  0  0  0
   -2.5428    3.1157    0.5791 C   0  0  0  0  0  0  0  0  0  0  0  0
   -2.8413    3.9821    1.5580 O   0  0  0  0  0  0  0  0  0  0  0  0
   -2.6714    3.3344   -0.6096 O   0  0  0  0  0  0  0  0  0  0  0  0
   -0.5003   -2.0408    0.4683 H   0  0  0  0  0  0  0  0  0  0  0  0
   -2.1348   -0.6597    1.5533 H   0  0  0  0  0  0  0  0  0  0  0  0
    0.1298   -1.0109    2.4556 H   0  0  0  0  0  0  0  0  0  0  0  0
   -0.3971    0.6616    2.7230 H   0  0  0  0  0  0  0  0  0  0  0  0
   -0.9126    1.3339   -0.4271 H   0  0  0  0  0  0  0  0  0  0  0  0
   -2.5732    0.7252   -0.4180 H   0  0  0  0  0  0  0  0  0  0  0  0
   -2.6241    3.5199    2.3880 H   0  0  0  0  0  0  0  0  0  0  0  0
  2  1  1  0  0  0  0
  3  2  1  0  0  0  0
  4  3  1  0  0  0  0
  5  2  1  0  0  0  0
  6  5  1  0  0  0  0
  7  6  1  0  0  0  0
  8  7  1  0  0  0  0
  9  7  2  0  0  0  0
  1 10  1  0  0  0  0
  2 11  1  0  0  0  0
  3 12  1  0  0  0  0
  3 13  1  0  0  0  0
  5 14  1  0  0  0  0
  5 15  1  0  0  0  0
  8 16  1  0  0  0  0
M  END
>  <energy>
-29.22690594914625

$$$$
OC(CCl)COC(O)=O
                    3D

 16 15  0  0  0  0  0  0  0  0999 V2000
   -1.2303   -0.5415   -0.1448 O   0  0  0  0  0  0  0  0  0  0  0  0
   -0.6385    0.6713    0.3435 C   0  0  0  0  0  0  0  0  0  0  0  0
    0.8507    0.4501    0.6182 C   0  0  0  0  0  0  0  0  0  0  0  0
    1.1253   -0.7446    1.9174 Cl  0  0  0  0  0  0  0  0  0  0  0  0
   -1.4048    1.1846    1.5728 C   0  0  0  0  0  0  0  0  0  0  0  0
   -2.7442    1.5900    1.2156 O   0  0  0  0  0  0  0  0  0  0  0  0
   -2.9584    2.8046    0.6649 C   0  0  0  0  0  0  0  0  0  0  0  0
   -1.8316    3.5219    0.4931 O   0  0  0  0  0  0  0  0  0  0  0  0
   -4.0427    3.2564    0.3443 O   0  0  0  0  0  0  0  0  0  0  0  0
   -1.1496   -1.2135    0.5572 H   0  0  0  0  0  0  0  0  0  0  0  0
   -0.7315    1.3896   -0.4772 H   0  0  0  0  0  0  0  0  0  0  0  0
    1.3394    1.3823    0.9161 H   0  0  0  0  0  0  0  0  0  0  0  0
    1.3483    0.0567   -0.2732 H   0  0  0  0  0  0  0  0  0  0  0  0
   -1.5334    0.3832    2.3078 H   0  0  0  0  0  0  0  0  0  0  0  0
   -0.8810    2.0064    2.0741 H   0  0  0  0  0  0  0  0  0  0  0  0
   -2.1812    4.3496    0.1011 H   0  0  0  0  0  0  0  0  0  0  0  0
  2  1  1  0  0  0  0
  3  2  1  0  0  0  0
  4  3  1  0  0  0  0
  5  2  1  0  0  0  0
  6  5  1  0  0  0  0
  7  6  1  0  0  0  0
  8  7  1  0  0  0  0
  9  7  2  0  0  0  0
  1 10  1  0  0  0  0
  2 11  1  0  0  0  0
  3 12  1  0  0  0  0
  3 13  1  0  0  0  0
  5 14  1  0  0  0  0
  5 15  1  0  0  0  0
  8 16  1  0  0  0  0
M  END
>  <energy>
-28.642323144898697

$$$$
OC(CCl)COC(O)=O
                    3D

 16 15  0  0  0  0  0  0  0  0999 V2000
   -0.0587    1.4207    0.2618 O   0  0  0  0  0  0  0  0  0  0  0  0
   -0.8148    0.3049    0.7744 C   0  0  0  0  0  0  0  0  0  0  0  0
    0.0432   -0.5254    1.7277 C   0  0  0  0  0  0  0  0  0  0  0  0
    1.4300   -1.2253    0.8487 Cl  0  0  0  0  0  0  0  0  0  0  0  0
   -2.0363    0.8729    1.5003 C   0  0  0  0  0  0  0  0  0  0  0  0
   -2.9056    1.5205    0.5482 O   0  0  0  0  0  0  0  0  0  0  0  0
   -2.9161    2.8765    0.4874 C   0  0  0  0  0  0  0  0  0  0  0  0
   -1.6805    3.4121    0.4925 O   0  0  0  0  0  0  0  0  0  0  0  0
   -3.9356    3.5361    0.3839 O   0  0  0  0  0  0  0  0  0  0  0  0
    0.7478    1.0360   -0.1441 H   0  0  0  0  0  0  0  0  0  0  0  0
   -1.1400   -0.2868   -0.0893 H   0  0  0  0  0  0  0  0  0  0  0  0
   -0.5251   -1.3510    2.1652 H   0  0  0  0  0  0  0  0  0  0  0  0
    0.4587    0.0941    2.5280 H   0  0  0  0  0  0  0  0  0  0  0  0
   -2.6175    0.0684    1.9632 H   0  0  0  0  0  0  0  0  0  0  0  0
   -1.7478    1.5788    2.2891 H   0  0  0  0  0  0  0  0  0  0  0  0
   -0.9999    2.7174    0.3356 H   0  0  0  0  0  0  0  0  0  0  0  0
  2  1  1  0  0  0  0
  3  2  1  0  0  0  0
  4  3  1  0  0  0  0
  5  2  1  0  0  0  0
  6  5  1  0  0  0  0
  7  6  1  0  0  0  0
  8  7  1  0  0  0  0
  9  7  2  0  0  0  0
  1 10  1  0  0  0  0
  2 11  1  0  0  0  0
  3 12  1  0  0  0  0
  3 13  1  0  0  0  0
  5 14  1  0  0  0  0
  5 15  1  0  0  0  0
  8 16  1  0  0  0  0
M  END
>  <energy>
-27.490616850883086

$$$$
