c1ccc2c(c1)N(c1c(S2)cccc1)C(=O)C
                    3D

 28 30  0  0  0  0  0  0  0  0999 V2000
    1.5423   -3.2590    1.4040 C   0  0  0  0  0  0  0  0  0  0  0  0
    0.3550   -3.9522    1.2354 C   0  0  0  0  0  0  0  0  0  0  0  0
   -0.7463   -3.2938    0.6968 C   0  0  0  0  0  0  0  0  0  0  0  0
   -0.6703   -1.9416    0.3111 C   0  0  0  0  0  0  0  0  0  0  0  0
    0.5320   -1.2322    0.4369 C   0  0  0  0  0  0  0  0  0  0  0  0
    1.6248   -1.9180    1.0165 C   0  0  0  0  0  0  0  0  0  0  0  0
    0.6869    0.1543    0.0556 N   0  0  0  0  0  0  0  0  0  0  0  0
   -0.4825    1.0020   -0.0310 C   0  0  0  0  0  0  0  0  0  0  0  0
   -1.7862    0.4903   -0.1611 C   0  0  0  0  0  0  0  0  0  0  0  0
   -2.1469   -1.2348   -0.3507 S   0  0  0  0  0  0  0  0  0  0  0  0
   -2.8971    1.3532   -0.2440 C   0  0  0  0  0  0  0  0  0  0  0  0
   -2.7375    2.7336   -0.2154 C   0  0  0  0  0  0  0  0  0  0  0  0
   -1.4614    3.2616   -0.1217 C   0  0  0  0  0  0  0  0  0  0  0  0
   -0.3543    2.4079   -0.0409 C   0  0  0  0  0  0  0  0  0  0  0  0
    1.9751    0.6933   -0.0813 C   0  0  0  0  0  0  0  0  0  0  0  0
    2.4075    1.6881    0.5007 O   0  0  0  0  0  0  0  0  0  0  0  0
    2.8470   -0.0164   -1.0998 C   0  0  0  0  0  0  0  0  0  0  0  0
    2.4042   -3.7508    1.8483 H   0  0  0  0  0  0  0  0  0  0  0  0
    0.2780   -4.9942    1.5346 H   0  0  0  0  0  0  0  0  0  0  0  0
   -1.6786   -3.8451    0.5830 H   0  0  0  0  0  0  0  0  0  0  0  0
    2.5644   -1.4101    1.2233 H   0  0  0  0  0  0  0  0  0  0  0  0
   -3.9019    0.9474   -0.3466 H   0  0  0  0  0  0  0  0  0  0  0  0
   -3.6020    3.3886   -0.2798 H   0  0  0  0  0  0  0  0  0  0  0  0
   -1.3144    4.3391   -0.1079 H   0  0  0  0  0  0  0  0  0  0  0  0
    0.6119    2.8976    0.0355 H   0  0  0  0  0  0  0  0  0  0  0  0
    3.1902    0.7202   -1.8326 H   0  0  0  0  0  0  0  0  0  0  0  0
    2.3027   -0.7929   -1.6435 H   0  0  0  0  0  0  0  0  0  0  0  0
    3.7145   -0.4566   -0.6020 H   0  0  0  0  0  0  0  0  0  0  0  0
  2  1  2  0  0  0  0
  3  2  1  0  0  0  0
  4  3  2  0  0  0  0
  5  4  1  0  0  0  0
  6  5  2  0  0  0  0
  6  1  1  0  0  0  0
  7  5  1  0  0  0  0
  8  7  1  0  0  0  0
  9  8  2  0  0  0  0
 10  9  1  0  0  0  0
 10  4  1  0  0  0  0
 11  9  1  0  0  0  0
 12 11  2  0  0  0  0
 13 12  1  0  0  0  0
 14 13  2  0  0  0  0
 14  8  1  0  0  0  0
 15  7  1  0  0  0  0
 16 15  2  0  0  0  0
 17 15  1  0  0  0  0
  1 18  1  0  0  0  0
  2 19  1  0  0  0  0
  3 20  1  0  0  0  0
  6 21  1  0  0  0  0
 11 22  1  0  0  0  0
 12 23  1  0  0  0  0
 13 24  1  0  0  0  0
 14 25  1  0  0  0  0
 17 26  1  0  0  0  0
 17 27  1  0  0  0  0
 17 28  1  0  0  0  0
M  END
>  <energy>
76.88954899120526

$$$$
