C=O
                    2D

  4  3  0  0  0  0  0  0  0  0999 V2000
   -0.0000   -0.0119   -0.0031 C   0  0  0  0  0  0  0  0  0  0  0  0
    0.0000    1.1729    0.3066 O   0  0  0  0  0  0  0  0  0  0  0  0
   -0.0000   -0.8162    0.7498 H   0  0  0  0  0  0  0  0  0  0  0  0
   -0.0000   -0.3448   -1.0533 H   0  0  0  0  0  0  0  0  0  0  0  0
  2  1  2  0  0  0  0
  1  3  1  0  0  0  0
  1  4  1  0  0  0  0
M  END
>  <energy>
0.054161432117088751

$$$$
