N1(C=C[C@H](C=C1)[C@@H]1C=CN(C=C1)CC)CC
                    3D

 36 37  0  0  0  0  0  0  0  0999 V2000
   -2.3823   -1.2688    0.8633 N   0  0  0  0  0  0  0  0  0  0  0  0
   -1.4617   -0.4264    1.4796 C   0  0  0  0  0  0  0  0  0  0  0  0
   -0.2492   -0.1571    0.9734 C   0  0  0  0  0  0  0  0  0  0  0  0
    0.2246   -0.7881   -0.3291 C   0  0  0  0  0  0  0  0  0  0  0  0
   -0.8718   -1.6248   -0.9762 C   0  0  0  0  0  0  0  0  0  0  0  0
   -2.0554   -1.8119   -0.3736 C   0  0  0  0  0  0  0  0  0  0  0  0
    1.5466   -1.6096   -0.1681 C   0  0  0  0  0  0  0  0  0  0  0  0
    1.4610   -2.6659    0.9259 C   0  0  0  0  0  0  0  0  0  0  0  0
    2.2956   -2.6498    1.9752 C   0  0  0  0  0  0  0  0  0  0  0  0
    3.3115   -1.7148    2.1381 N   0  0  0  0  0  0  0  0  0  0  0  0
    3.5059   -0.7692    1.1367 C   0  0  0  0  0  0  0  0  0  0  0  0
    2.7350   -0.6804    0.0428 C   0  0  0  0  0  0  0  0  0  0  0  0
    4.1526   -1.7196    3.3449 C   0  0  0  0  0  0  0  0  0  0  0  0
    3.5559   -0.8283    4.4261 C   0  0  0  0  0  0  0  0  0  0  0  0
   -3.6830   -1.5483    1.4915 C   0  0  0  0  0  0  0  0  0  0  0  0
   -4.6988   -0.4741    1.1374 C   0  0  0  0  0  0  0  0  0  0  0  0
   -1.7889    0.0121    2.4180 H   0  0  0  0  0  0  0  0  0  0  0  0
    0.4291    0.5045    1.5012 H   0  0  0  0  0  0  0  0  0  0  0  0
    0.4205    0.0407   -1.0258 H   0  0  0  0  0  0  0  0  0  0  0  0
   -0.6742   -2.0680   -1.9449 H   0  0  0  0  0  0  0  0  0  0  0  0
   -2.8348   -2.4126   -0.8352 H   0  0  0  0  0  0  0  0  0  0  0  0
    1.7425   -2.1447   -1.1091 H   0  0  0  0  0  0  0  0  0  0  0  0
    0.6837   -3.4200    0.8535 H   0  0  0  0  0  0  0  0  0  0  0  0
    2.2117   -3.3886    2.7673 H   0  0  0  0  0  0  0  0  0  0  0  0
    4.3446   -0.0982    1.2928 H   0  0  0  0  0  0  0  0  0  0  0  0
    2.9449    0.0661   -0.7157 H   0  0  0  0  0  0  0  0  0  0  0  0
    5.1671   -1.3770    3.1055 H   0  0  0  0  0  0  0  0  0  0  0  0
    4.2594   -2.7419    3.7296 H   0  0  0  0  0  0  0  0  0  0  0  0
    3.4487    0.2047    4.0755 H   0  0  0  0  0  0  0  0  0  0  0  0
    2.5654   -1.1840    4.7314 H   0  0  0  0  0  0  0  0  0  0  0  0
    4.2054   -0.8258    5.3082 H   0  0  0  0  0  0  0  0  0  0  0  0
   -4.0618   -2.5274    1.1689 H   0  0  0  0  0  0  0  0  0  0  0  0
   -3.5722   -1.6061    2.5810 H   0  0  0  0  0  0  0  0  0  0  0  0
   -5.6601   -0.6855    1.6160 H   0  0  0  0  0  0  0  0  0  0  0  0
   -4.8627   -0.4243    0.0562 H   0  0  0  0  0  0  0  0  0  0  0  0
   -4.3652    0.5132    1.4744 H   0  0  0  0  0  0  0  0  0  0  0  0
  2  1  1  0  0  0  0
  3  2  2  0  0  0  0
  4  3  1  0  0  0  0
  5  4  1  0  0  0  0
  6  5  2  0  0  0  0
  6  1  1  0  0  0  0
  7  4  1  0  0  0  0
  8  7  1  0  0  0  0
  9  8  2  0  0  0  0
 10  9  1  0  0  0  0
 11 10  1  0  0  0  0
 12 11  2  0  0  0  0
 12  7  1  0  0  0  0
 13 10  1  0  0  0  0
 14 13  1  0  0  0  0
 15  1  1  0  0  0  0
 16 15  1  0  0  0  0
  2 17  1  0  0  0  0
  3 18  1  0  0  0  0
  4 19  1  0  0  0  0
  5 20  1  0  0  0  0
  6 21  1  0  0  0  0
  7 22  1  0  0  0  0
  8 23  1  0  0  0  0
  9 24  1  0  0  0  0
 11 25  1  0  0  0  0
 12 26  1  0  0  0  0
 13 27  1  0  0  0  0
 13 28  1  0  0  0  0
 14 29  1  0  0  0  0
 14 30  1  0  0  0  0
 14 31  1  0  0  0  0
 15 32  1  0  0  0  0
 15 33  1  0  0  0  0
 16 34  1  0  0  0  0
 16 35  1  0  0  0  0
 16 36  1  0  0  0  0
M  END
>  <energy>
18.565197981226536

$$$$
N1(C=C[C@H](C=C1)[C@@H]1C=CN(C=C1)CC)CC
                    3D

 36 37  0  0  0  0  0  0  0  0999 V2000
   -2.3480   -0.6718    0.6689 N   0  0  0  0  0  0  0  0  0  0  0  0
   -1.8917   -0.7263   -0.6426 C   0  0  0  0  0  0  0  0  0  0  0  0
   -0.8160   -1.4291   -1.0244 C   0  0  0  0  0  0  0  0  0  0  0  0
   -0.0006   -2.2318   -0.0186 C   0  0  0  0  0  0  0  0  0  0  0  0
   -0.6278   -2.2000    1.3705 C   0  0  0  0  0  0  0  0  0  0  0  0
   -1.7060   -1.4469    1.6285 C   0  0  0  0  0  0  0  0  0  0  0  0
    1.4907   -1.7658   -0.0041 C   0  0  0  0  0  0  0  0  0  0  0  0
    2.3685   -2.8492    0.6088 C   0  0  0  0  0  0  0  0  0  0  0  0
    3.0583   -2.6229    1.7360 C   0  0  0  0  0  0  0  0  0  0  0  0
    3.0565   -1.4029    2.4044 N   0  0  0  0  0  0  0  0  0  0  0  0
    2.3973   -0.3272    1.8220 C   0  0  0  0  0  0  0  0  0  0  0  0
    1.6751   -0.4246    0.6984 C   0  0  0  0  0  0  0  0  0  0  0  0
    3.7892   -1.2370    3.6629 C   0  0  0  0  0  0  0  0  0  0  0  0
    5.2542   -0.9543    3.3842 C   0  0  0  0  0  0  0  0  0  0  0  0
   -3.5099    0.1531    1.0292 C   0  0  0  0  0  0  0  0  0  0  0  0
   -4.8033   -0.6006    0.7637 C   0  0  0  0  0  0  0  0  0  0  0  0
   -2.4708   -0.1496   -1.3590 H   0  0  0  0  0  0  0  0  0  0  0  0
   -0.5052   -1.4353   -2.0623 H   0  0  0  0  0  0  0  0  0  0  0  0
   -0.0423   -3.2769   -0.3620 H   0  0  0  0  0  0  0  0  0  0  0  0
   -0.1446   -2.7652    2.1612 H   0  0  0  0  0  0  0  0  0  0  0  0
   -2.1272   -1.3967    2.6282 H   0  0  0  0  0  0  0  0  0  0  0  0
    1.8305   -1.6376   -1.0422 H   0  0  0  0  0  0  0  0  0  0  0  0
    2.4030   -3.8212    0.1235 H   0  0  0  0  0  0  0  0  0  0  0  0
    3.6665   -3.3987    2.1883 H   0  0  0  0  0  0  0  0  0  0  0  0
    2.4889    0.6172    2.3484 H   0  0  0  0  0  0  0  0  0  0  0  0
    1.1609    0.4405    0.2952 H   0  0  0  0  0  0  0  0  0  0  0  0
    3.6931   -2.1426    4.2769 H   0  0  0  0  0  0  0  0  0  0  0  0
    3.3556   -0.4221    4.2554 H   0  0  0  0  0  0  0  0  0  0  0  0
    5.7296   -1.8044    2.8846 H   0  0  0  0  0  0  0  0  0  0  0  0
    5.3694   -0.0780    2.7347 H   0  0  0  0  0  0  0  0  0  0  0  0
    5.7985   -0.7665    4.3155 H   0  0  0  0  0  0  0  0  0  0  0  0
   -3.4597    0.4412    2.0867 H   0  0  0  0  0  0  0  0  0  0  0  0
   -3.5003    1.0896    0.4581 H   0  0  0  0  0  0  0  0  0  0  0  0
   -5.6683   -0.0201    1.1008 H   0  0  0  0  0  0  0  0  0  0  0  0
   -4.8250   -1.5624    1.2848 H   0  0  0  0  0  0  0  0  0  0  0  0
   -4.9231   -0.7964   -0.3059 H   0  0  0  0  0  0  0  0  0  0  0  0
  2  1  1  0  0  0  0
  3  2  2  0  0  0  0
  4  3  1  0  0  0  0
  5  4  1  0  0  0  0
  6  5  2  0  0  0  0
  6  1  1  0  0  0  0
  7  4  1  0  0  0  0
  8  7  1  0  0  0  0
  9  8  2  0  0  0  0
 10  9  1  0  0  0  0
 11 10  1  0  0  0  0
 12 11  2  0  0  0  0
 12  7  1  0  0  0  0
 13 10  1  0  0  0  0
 14 13  1  0  0  0  0
 15  1  1  0  0  0  0
 16 15  1  0  0  0  0
  2 17  1  0  0  0  0
  3 18  1  0  0  0  0
  4 19  1  0  0  0  0
  5 20  1  0  0  0  0
  6 21  1  0  0  0  0
  7 22  1  0  0  0  0
  8 23  1  0  0  0  0
  9 24  1  0  0  0  0
 11 25  1  0  0  0  0
 12 26  1  0  0  0  0
 13 27  1  0  0  0  0
 13 28  1  0  0  0  0
 14 29  1  0  0  0  0
 14 30  1  0  0  0  0
 14 31  1  0  0  0  0
 15 32  1  0  0  0  0
 15 33  1  0  0  0  0
 16 34  1  0  0  0  0
 16 35  1  0  0  0  0
 16 36  1  0  0  0  0
M  END
>  <energy>
19.330486303869087

$$$$
N1(C=C[C@H](C=C1)[C@@H]1C=CN(C=C1)CC)CC
                    3D

 36 37  0  0  0  0  0  0  0  0999 V2000
   -2.1578   -0.6811    0.8216 N   0  0  0  0  0  0  0  0  0  0  0  0
   -1.8539   -0.7420   -0.5338 C   0  0  0  0  0  0  0  0  0  0  0  0
   -0.8616   -1.4914   -1.0332 C   0  0  0  0  0  0  0  0  0  0  0  0
    0.0271   -2.3266   -0.1231 C   0  0  0  0  0  0  0  0  0  0  0  0
   -0.4763   -2.3287    1.3137 C   0  0  0  0  0  0  0  0  0  0  0  0
   -1.4811   -1.5282    1.6946 C   0  0  0  0  0  0  0  0  0  0  0  0
    1.5208   -1.8719   -0.2139 C   0  0  0  0  0  0  0  0  0  0  0  0
    2.4314   -2.9191    0.4139 C   0  0  0  0  0  0  0  0  0  0  0  0
    3.1856   -2.6310    1.4859 C   0  0  0  0  0  0  0  0  0  0  0  0
    3.2341   -1.3718    2.0804 N   0  0  0  0  0  0  0  0  0  0  0  0
    2.5359   -0.3328    1.4730 C   0  0  0  0  0  0  0  0  0  0  0  0
    1.7495   -0.4955    0.3992 C   0  0  0  0  0  0  0  0  0  0  0  0
    4.0626   -1.1317    3.2750 C   0  0  0  0  0  0  0  0  0  0  0  0
    3.2093   -0.8045    4.4947 C   0  0  0  0  0  0  0  0  0  0  0  0
   -3.1715    0.2556    1.3272 C   0  0  0  0  0  0  0  0  0  0  0  0
   -4.5676   -0.3366    1.2126 C   0  0  0  0  0  0  0  0  0  0  0  0
   -2.4781   -0.1267   -1.1749 H   0  0  0  0  0  0  0  0  0  0  0  0
   -0.6629   -1.4917   -2.0976 H   0  0  0  0  0  0  0  0  0  0  0  0
   -0.0507   -3.3615   -0.4884 H   0  0  0  0  0  0  0  0  0  0  0  0
    0.0457   -2.9483    2.0384 H   0  0  0  0  0  0  0  0  0  0  0  0
   -1.8130   -1.4942    2.7296 H   0  0  0  0  0  0  0  0  0  0  0  0
    1.8050   -1.8034   -1.2725 H   0  0  0  0  0  0  0  0  0  0  0  0
    2.4341   -3.9179   -0.0105 H   0  0  0  0  0  0  0  0  0  0  0  0
    3.8048   -3.3919    1.9509 H   0  0  0  0  0  0  0  0  0  0  0  0
    2.6559    0.6407    1.9361 H   0  0  0  0  0  0  0  0  0  0  0  0
    1.2215    0.3507   -0.0288 H   0  0  0  0  0  0  0  0  0  0  0  0
    4.7556   -0.3028    3.0835 H   0  0  0  0  0  0  0  0  0  0  0  0
    4.6803   -2.0074    3.5050 H   0  0  0  0  0  0  0  0  0  0  0  0
    2.6119    0.1010    4.3416 H   0  0  0  0  0  0  0  0  0  0  0  0
    2.5259   -1.6258    4.7300 H   0  0  0  0  0  0  0  0  0  0  0  0
    3.8480   -0.6424    5.3682 H   0  0  0  0  0  0  0  0  0  0  0  0
   -2.9655    0.5088    2.3755 H   0  0  0  0  0  0  0  0  0  0  0  0
   -3.1128    1.2012    0.7750 H   0  0  0  0  0  0  0  0  0  0  0  0
   -5.2961    0.2866    1.7433 H   0  0  0  0  0  0  0  0  0  0  0  0
   -4.6107   -1.3459    1.6323 H   0  0  0  0  0  0  0  0  0  0  0  0
   -4.8752   -0.3951    0.1636 H   0  0  0  0  0  0  0  0  0  0  0  0
  2  1  1  0  0  0  0
  3  2  2  0  0  0  0
  4  3  1  0  0  0  0
  5  4  1  0  0  0  0
  6  5  2  0  0  0  0
  6  1  1  0  0  0  0
  7  4  1  0  0  0  0
  8  7  1  0  0  0  0
  9  8  2  0  0  0  0
 10  9  1  0  0  0  0
 11 10  1  0  0  0  0
 12 11  2  0  0  0  0
 12  7  1  0  0  0  0
 13 10  1  0  0  0  0
 14 13  1  0  0  0  0
 15  1  1  0  0  0  0
 16 15  1  0  0  0  0
  2 17  1  0  0  0  0
  3 18  1  0  0  0  0
  4 19  1  0  0  0  0
  5 20  1  0  0  0  0
  6 21  1  0  0  0  0
  7 22  1  0  0  0  0
  8 23  1  0  0  0  0
  9 24  1  0  0  0  0
 11 25  1  0  0  0  0
 12 26  1  0  0  0  0
 13 27  1  0  0  0  0
 13 28  1  0  0  0  0
 14 29  1  0  0  0  0
 14 30  1  0  0  0  0
 14 31  1  0  0  0  0
 15 32  1  0  0  0  0
 15 33  1  0  0  0  0
 16 34  1  0  0  0  0
 16 35  1  0  0  0  0
 16 36  1  0  0  0  0
M  END
>  <energy>
20.425045780577626

$$$$
N1(C=C[C@H](C=C1)[C@@H]1C=CN(C=C1)CC)CC
                    3D

 36 37  0  0  0  0  0  0  0  0999 V2000
    3.5358   -1.2562    2.1544 N   0  0  0  0  0  0  0  0  0  0  0  0
    3.1901   -2.5686    1.8698 C   0  0  0  0  0  0  0  0  0  0  0  0
    2.2419   -2.9110    0.9850 C   0  0  0  0  0  0  0  0  0  0  0  0
    1.4385   -1.8754    0.2155 C   0  0  0  0  0  0  0  0  0  0  0  0
    1.9093   -0.4627    0.5368 C   0  0  0  0  0  0  0  0  0  0  0  0
    2.8789   -0.2453    1.4474 C   0  0  0  0  0  0  0  0  0  0  0  0
   -0.0909   -2.1441    0.4511 C   0  0  0  0  0  0  0  0  0  0  0  0
   -0.9382   -1.9890   -0.8093 C   0  0  0  0  0  0  0  0  0  0  0  0
   -2.1237   -1.3602   -0.7797 C   0  0  0  0  0  0  0  0  0  0  0  0
   -2.6626   -0.7483    0.3437 N   0  0  0  0  0  0  0  0  0  0  0  0
   -1.8940   -0.7629    1.5141 C   0  0  0  0  0  0  0  0  0  0  0  0
   -0.7047   -1.3824    1.6164 C   0  0  0  0  0  0  0  0  0  0  0  0
   -3.8821    0.0782    0.2221 C   0  0  0  0  0  0  0  0  0  0  0  0
   -5.0409   -0.4444    1.0548 C   0  0  0  0  0  0  0  0  0  0  0  0
    4.7029   -0.9124    3.0008 C   0  0  0  0  0  0  0  0  0  0  0  0
    4.8260   -1.7526    4.2650 C   0  0  0  0  0  0  0  0  0  0  0  0
    3.7334   -3.3387    2.4060 H   0  0  0  0  0  0  0  0  0  0  0  0
    2.0162   -3.9553    0.8113 H   0  0  0  0  0  0  0  0  0  0  0  0
    1.6670   -2.0633   -0.8436 H   0  0  0  0  0  0  0  0  0  0  0  0
    1.4493    0.3729    0.0213 H   0  0  0  0  0  0  0  0  0  0  0  0
    3.2012    0.7572    1.6977 H   0  0  0  0  0  0  0  0  0  0  0  0
   -0.2031   -3.2097    0.7016 H   0  0  0  0  0  0  0  0  0  0  0  0
   -0.5799   -2.4496   -1.7241 H   0  0  0  0  0  0  0  0  0  0  0  0
   -2.7368   -1.2900   -1.6772 H   0  0  0  0  0  0  0  0  0  0  0  0
   -2.3201   -0.2264    2.3493 H   0  0  0  0  0  0  0  0  0  0  0  0
   -0.1481   -1.3523    2.5467 H   0  0  0  0  0  0  0  0  0  0  0  0
   -3.6571    1.1079    0.5176 H   0  0  0  0  0  0  0  0  0  0  0  0
   -4.2053    0.1275   -0.8309 H   0  0  0  0  0  0  0  0  0  0  0  0
   -4.8255   -0.4118    2.1298 H   0  0  0  0  0  0  0  0  0  0  0  0
   -5.2772   -1.4786    0.7839 H   0  0  0  0  0  0  0  0  0  0  0  0
   -5.9269    0.1788    0.8767 H   0  0  0  0  0  0  0  0  0  0  0  0
    4.6261    0.1410    3.3015 H   0  0  0  0  0  0  0  0  0  0  0  0
    5.6228   -1.0049    2.4098 H   0  0  0  0  0  0  0  0  0  0  0  0
    5.5210   -1.2745    4.9572 H   0  0  0  0  0  0  0  0  0  0  0  0
    3.8655   -1.8809    4.7705 H   0  0  0  0  0  0  0  0  0  0  0  0
    5.2417   -2.7379    4.0366 H   0  0  0  0  0  0  0  0  0  0  0  0
  2  1  1  0  0  0  0
  3  2  2  0  0  0  0
  4  3  1  0  0  0  0
  5  4  1  0  0  0  0
  6  5  2  0  0  0  0
  6  1  1  0  0  0  0
  7  4  1  0  0  0  0
  8  7  1  0  0  0  0
  9  8  2  0  0  0  0
 10  9  1  0  0  0  0
 11 10  1  0  0  0  0
 12 11  2  0  0  0  0
 12  7  1  0  0  0  0
 13 10  1  0  0  0  0
 14 13  1  0  0  0  0
 15  1  1  0  0  0  0
 16 15  1  0  0  0  0
  2 17  1  0  0  0  0
  3 18  1  0  0  0  0
  4 19  1  0  0  0  0
  5 20  1  0  0  0  0
  6 21  1  0  0  0  0
  7 22  1  0  0  0  0
  8 23  1  0  0  0  0
  9 24  1  0  0  0  0
 11 25  1  0  0  0  0
 12 26  1  0  0  0  0
 13 27  1  0  0  0  0
 13 28  1  0  0  0  0
 14 29  1  0  0  0  0
 14 30  1  0  0  0  0
 14 31  1  0  0  0  0
 15 32  1  0  0  0  0
 15 33  1  0  0  0  0
 16 34  1  0  0  0  0
 16 35  1  0  0  0  0
 16 36  1  0  0  0  0
M  END
>  <energy>
25.838606190363159

$$$$
