c1ccc2c(c1)N(c1c(S2)cccc1)C(=O)c1ccccc1
                    3D

 35 38  0  0  0  0  0  0  0  0999 V2000
    0.1839   -3.8160   -0.4173 C   0  0  0  0  0  0  0  0  0  0  0  0
   -1.0605   -4.2691   -0.8209 C   0  0  0  0  0  0  0  0  0  0  0  0
   -2.0915   -3.3526   -1.0140 C   0  0  0  0  0  0  0  0  0  0  0  0
   -1.8898   -1.9716   -0.8110 C   0  0  0  0  0  0  0  0  0  0  0  0
   -0.6276   -1.4855   -0.4432 C   0  0  0  0  0  0  0  0  0  0  0  0
    0.3896   -2.4470   -0.2187 C   0  0  0  0  0  0  0  0  0  0  0  0
   -0.3334   -0.0767   -0.2704 N   0  0  0  0  0  0  0  0  0  0  0  0
   -1.4134    0.8661   -0.0507 C   0  0  0  0  0  0  0  0  0  0  0  0
   -2.7538    0.5810   -0.3614 C   0  0  0  0  0  0  0  0  0  0  0  0
   -3.2916   -0.9355   -1.0975 S   0  0  0  0  0  0  0  0  0  0  0  0
   -3.7639    1.5463   -0.1613 C   0  0  0  0  0  0  0  0  0  0  0  0
   -3.4699    2.8025    0.3547 C   0  0  0  0  0  0  0  0  0  0  0  0
   -2.1558    3.1135    0.6507 C   0  0  0  0  0  0  0  0  0  0  0  0
   -1.1475    2.1646    0.4397 C   0  0  0  0  0  0  0  0  0  0  0  0
    1.0049    0.3424   -0.1667 C   0  0  0  0  0  0  0  0  0  0  0  0
    1.4771    0.9817    0.7698 O   0  0  0  0  0  0  0  0  0  0  0  0
    1.9156    0.0131   -1.3123 C   0  0  0  0  0  0  0  0  0  0  0  0
    3.2955   -0.0189   -1.0717 C   0  0  0  0  0  0  0  0  0  0  0  0
    4.1852   -0.3172   -2.1053 C   0  0  0  0  0  0  0  0  0  0  0  0
    3.7015   -0.5762   -3.3862 C   0  0  0  0  0  0  0  0  0  0  0  0
    2.3302   -0.5266   -3.6388 C   0  0  0  0  0  0  0  0  0  0  0  0
    1.4358   -0.2304   -2.6063 C   0  0  0  0  0  0  0  0  0  0  0  0
    0.9973   -4.5185   -0.2517 H   0  0  0  0  0  0  0  0  0  0  0  0
   -1.2284   -5.3313   -0.9786 H   0  0  0  0  0  0  0  0  0  0  0  0
   -3.0620   -3.7246   -1.3365 H   0  0  0  0  0  0  0  0  0  0  0  0
    1.3735   -2.1591    0.1415 H   0  0  0  0  0  0  0  0  0  0  0  0
   -4.7970    1.3233   -0.4162 H   0  0  0  0  0  0  0  0  0  0  0  0
   -4.2603    3.5291    0.5156 H   0  0  0  0  0  0  0  0  0  0  0  0
   -1.9025    4.0956    1.0391 H   0  0  0  0  0  0  0  0  0  0  0  0
   -0.1427    2.4867    0.6928 H   0  0  0  0  0  0  0  0  0  0  0  0
    3.6834    0.1827   -0.0741 H   0  0  0  0  0  0  0  0  0  0  0  0
    5.2536   -0.3474   -1.9064 H   0  0  0  0  0  0  0  0  0  0  0  0
    4.3941   -0.8120   -4.1918 H   0  0  0  0  0  0  0  0  0  0  0  0
    1.9550   -0.7102   -4.6423 H   0  0  0  0  0  0  0  0  0  0  0  0
    0.3722   -0.1939   -2.8267 H   0  0  0  0  0  0  0  0  0  0  0  0
  2  1  2  0  0  0  0
  3  2  1  0  0  0  0
  4  3  2  0  0  0  0
  5  4  1  0  0  0  0
  6  5  2  0  0  0  0
  6  1  1  0  0  0  0
  7  5  1  0  0  0  0
  8  7  1  0  0  0  0
  9  8  2  0  0  0  0
 10  9  1  0  0  0  0
 10  4  1  0  0  0  0
 11  9  1  0  0  0  0
 12 11  2  0  0  0  0
 13 12  1  0  0  0  0
 14 13  2  0  0  0  0
 14  8  1  0  0  0  0
 15  7  1  0  0  0  0
 16 15  2  0  0  0  0
 17 15  1  0  0  0  0
 18 17  2  0  0  0  0
 19 18  1  0  0  0  0
 20 19  2  0  0  0  0
 21 20  1  0  0  0  0
 22 21  2  0  0  0  0
 22 17  1  0  0  0  0
  1 23  1  0  0  0  0
  2 24  1  0  0  0  0
  3 25  1  0  0  0  0
  6 26  1  0  0  0  0
 11 27  1  0  0  0  0
 12 28  1  0  0  0  0
 13 29  1  0  0  0  0
 14 30  1  0  0  0  0
 18 31  1  0  0  0  0
 19 32  1  0  0  0  0
 20 33  1  0  0  0  0
 21 34  1  0  0  0  0
 22 35  1  0  0  0  0
M  END
>  <energy>
112.40563581651834

$$$$
