N1(C=C[C@H](C=C1)[C@@H]1C=CN(C=C1)CC=C)CC=C
                    3D

 38 39  0  0  0  0  0  0  0  0999 V2000
    3.1359    0.2974    0.9042 N   0  0  0  0  0  0  0  0  0  0  0  0
    2.5492    1.4685    0.4283 C   0  0  0  0  0  0  0  0  0  0  0  0
    1.2504    1.7684    0.5965 C   0  0  0  0  0  0  0  0  0  0  0  0
    0.3172    0.8452    1.3561 C   0  0  0  0  0  0  0  0  0  0  0  0
    1.0438   -0.3811    1.8846 C   0  0  0  0  0  0  0  0  0  0  0  0
    2.3467   -0.5845    1.6401 C   0  0  0  0  0  0  0  0  0  0  0  0
   -0.9774    0.4537    0.5712 C   0  0  0  0  0  0  0  0  0  0  0  0
   -0.7313   -0.1860   -0.7903 C   0  0  0  0  0  0  0  0  0  0  0  0
   -1.3350    0.2739   -1.8974 C   0  0  0  0  0  0  0  0  0  0  0  0
   -2.2178    1.3516   -1.9105 N   0  0  0  0  0  0  0  0  0  0  0  0
   -2.4691    2.0041   -0.7090 C   0  0  0  0  0  0  0  0  0  0  0  0
   -1.9335    1.6378    0.4630 C   0  0  0  0  0  0  0  0  0  0  0  0
   -2.9107    1.7603   -3.1423 C   0  0  0  0  0  0  0  0  0  0  0  0
   -1.9290    2.4322   -4.0668 C   0  0  0  0  0  0  0  0  0  0  0  0
   -1.5299    1.9353   -5.2467 C   0  0  0  0  0  0  0  0  0  0  0  0
    4.5849    0.0757    0.7555 C   0  0  0  0  0  0  0  0  0  0  0  0
    4.9098   -0.3042   -0.6622 C   0  0  0  0  0  0  0  0  0  0  0  0
    5.7131    0.3806   -1.4878 C   0  0  0  0  0  0  0  0  0  0  0  0
    3.2179    2.1447   -0.0935 H   0  0  0  0  0  0  0  0  0  0  0  0
    0.8471    2.6955    0.2063 H   0  0  0  0  0  0  0  0  0  0  0  0
    0.0110    1.4050    2.2573 H   0  0  0  0  0  0  0  0  0  0  0  0
    0.4923   -1.0861    2.5027 H   0  0  0  0  0  0  0  0  0  0  0  0
    2.8570   -1.4540    2.0410 H   0  0  0  0  0  0  0  0  0  0  0  0
   -1.5069   -0.3015    1.1699 H   0  0  0  0  0  0  0  0  0  0  0  0
   -0.0621   -1.0379   -0.8447 H   0  0  0  0  0  0  0  0  0  0  0  0
   -1.1611   -0.1807   -2.8683 H   0  0  0  0  0  0  0  0  0  0  0  0
   -3.1461    2.8491   -0.7728 H   0  0  0  0  0  0  0  0  0  0  0  0
   -2.1854    2.1714    1.3709 H   0  0  0  0  0  0  0  0  0  0  0  0
   -3.7157    2.4734   -2.9328 H   0  0  0  0  0  0  0  0  0  0  0  0
   -3.3852    0.8935   -3.6167 H   0  0  0  0  0  0  0  0  0  0  0  0
   -1.5308    3.3913   -3.7291 H   0  0  0  0  0  0  0  0  0  0  0  0
   -1.8849    0.9737   -5.6163 H   0  0  0  0  0  0  0  0  0  0  0  0
   -0.8180    2.4818   -5.8607 H   0  0  0  0  0  0  0  0  0  0  0  0
    4.9301   -0.7350    1.4147 H   0  0  0  0  0  0  0  0  0  0  0  0
    5.1292    0.9823    1.0480 H   0  0  0  0  0  0  0  0  0  0  0  0
    4.4519   -1.2250   -1.0169 H   0  0  0  0  0  0  0  0  0  0  0  0
    5.9148    0.0169   -2.4953 H   0  0  0  0  0  0  0  0  0  0  0  0
    6.1764    1.3170   -1.1911 H   0  0  0  0  0  0  0  0  0  0  0  0
  2  1  1  0  0  0  0
  3  2  2  0  0  0  0
  4  3  1  0  0  0  0
  5  4  1  0  0  0  0
  6  5  2  0  0  0  0
  6  1  1  0  0  0  0
  7  4  1  0  0  0  0
  8  7  1  0  0  0  0
  9  8  2  0  0  0  0
 10  9  1  0  0  0  0
 11 10  1  0  0  0  0
 12 11  2  0  0  0  0
 12  7  1  0  0  0  0
 13 10  1  0  0  0  0
 14 13  1  0  0  0  0
 15 14  2  0  0  0  0
 16  1  1  0  0  0  0
 17 16  1  0  0  0  0
 18 17  2  0  0  0  0
  2 19  1  0  0  0  0
  3 20  1  0  0  0  0
  4 21  1  0  0  0  0
  5 22  1  0  0  0  0
  6 23  1  0  0  0  0
  7 24  1  0  0  0  0
  8 25  1  0  0  0  0
  9 26  1  0  0  0  0
 11 27  1  0  0  0  0
 12 28  1  0  0  0  0
 13 29  1  0  0  0  0
 13 30  1  0  0  0  0
 14 31  1  0  0  0  0
 15 32  1  0  0  0  0
 15 33  1  0  0  0  0
 16 34  1  0  0  0  0
 16 35  1  0  0  0  0
 17 36  1  0  0  0  0
 18 37  1  0  0  0  0
 18 38  1  0  0  0  0
M  END
>  <energy>
41.838109287925384

$$$$
N1(C=C[C@H](C=C1)[C@@H]1C=CN(C=C1)CC=C)CC=C
                    3D

 38 39  0  0  0  0  0  0  0  0999 V2000
   -2.5964    1.1929   -1.8691 N   0  0  0  0  0  0  0  0  0  0  0  0
   -1.8349    0.0301   -1.7833 C   0  0  0  0  0  0  0  0  0  0  0  0
   -0.9992   -0.2404   -0.7665 C   0  0  0  0  0  0  0  0  0  0  0  0
   -0.8392    0.7180    0.4045 C   0  0  0  0  0  0  0  0  0  0  0  0
   -1.6728    1.9817    0.2114 C   0  0  0  0  0  0  0  0  0  0  0  0
   -2.4688    2.1389   -0.8553 C   0  0  0  0  0  0  0  0  0  0  0  0
    0.6417    1.0468    0.7759 C   0  0  0  0  0  0  0  0  0  0  0  0
    1.4821    1.5990   -0.3661 C   0  0  0  0  0  0  0  0  0  0  0  0
    2.7083    1.1154   -0.6268 C   0  0  0  0  0  0  0  0  0  0  0  0
    3.2940    0.0725    0.0873 N   0  0  0  0  0  0  0  0  0  0  0  0
    2.5506   -0.5361    1.0920 C   0  0  0  0  0  0  0  0  0  0  0  0
    1.3172   -0.1410    1.4461 C   0  0  0  0  0  0  0  0  0  0  0  0
    4.6745   -0.3571   -0.1797 C   0  0  0  0  0  0  0  0  0  0  0  0
    5.6057    0.3721    0.7506 C   0  0  0  0  0  0  0  0  0  0  0  0
    6.4492   -0.2099    1.6161 C   0  0  0  0  0  0  0  0  0  0  0  0
   -3.5733    1.3800   -2.9574 C   0  0  0  0  0  0  0  0  0  0  0  0
   -3.0582    2.2369   -4.0853 C   0  0  0  0  0  0  0  0  0  0  0  0
   -1.8632    2.8292   -4.2079 C   0  0  0  0  0  0  0  0  0  0  0  0
   -1.9621   -0.6640   -2.6103 H   0  0  0  0  0  0  0  0  0  0  0  0
   -0.4326   -1.1666   -0.7511 H   0  0  0  0  0  0  0  0  0  0  0  0
   -1.2882    0.2093    1.2720 H   0  0  0  0  0  0  0  0  0  0  0  0
   -1.6376    2.7489    0.9778 H   0  0  0  0  0  0  0  0  0  0  0  0
   -3.0734    3.0320   -0.9867 H   0  0  0  0  0  0  0  0  0  0  0  0
    0.6171    1.8360    1.5403 H   0  0  0  0  0  0  0  0  0  0  0  0
    1.0825    2.4205   -0.9522 H   0  0  0  0  0  0  0  0  0  0  0  0
    3.3212    1.5320   -1.4216 H   0  0  0  0  0  0  0  0  0  0  0  0
    3.0426   -1.3644    1.5939 H   0  0  0  0  0  0  0  0  0  0  0  0
    0.7920   -0.6539    2.2430 H   0  0  0  0  0  0  0  0  0  0  0  0
    4.9563   -0.1400   -1.2165 H   0  0  0  0  0  0  0  0  0  0  0  0
    4.7571   -1.4416   -0.0523 H   0  0  0  0  0  0  0  0  0  0  0  0
    5.5679    1.4596    0.7075 H   0  0  0  0  0  0  0  0  0  0  0  0
    6.5209   -1.2876    1.7152 H   0  0  0  0  0  0  0  0  0  0  0  0
    7.0767    0.3967    2.2606 H   0  0  0  0  0  0  0  0  0  0  0  0
   -4.4860    1.8414   -2.5600 H   0  0  0  0  0  0  0  0  0  0  0  0
   -3.8798    0.4083   -3.3658 H   0  0  0  0  0  0  0  0  0  0  0  0
   -3.7726    2.3811   -4.8943 H   0  0  0  0  0  0  0  0  0  0  0  0
   -1.6264    3.4263   -5.0833 H   0  0  0  0  0  0  0  0  0  0  0  0
   -1.0988    2.7308   -3.4440 H   0  0  0  0  0  0  0  0  0  0  0  0
  2  1  1  0  0  0  0
  3  2  2  0  0  0  0
  4  3  1  0  0  0  0
  5  4  1  0  0  0  0
  6  5  2  0  0  0  0
  6  1  1  0  0  0  0
  7  4  1  0  0  0  0
  8  7  1  0  0  0  0
  9  8  2  0  0  0  0
 10  9  1  0  0  0  0
 11 10  1  0  0  0  0
 12 11  2  0  0  0  0
 12  7  1  0  0  0  0
 13 10  1  0  0  0  0
 14 13  1  0  0  0  0
 15 14  2  0  0  0  0
 16  1  1  0  0  0  0
 17 16  1  0  0  0  0
 18 17  2  0  0  0  0
  2 19  1  0  0  0  0
  3 20  1  0  0  0  0
  4 21  1  0  0  0  0
  5 22  1  0  0  0  0
  6 23  1  0  0  0  0
  7 24  1  0  0  0  0
  8 25  1  0  0  0  0
  9 26  1  0  0  0  0
 11 27  1  0  0  0  0
 12 28  1  0  0  0  0
 13 29  1  0  0  0  0
 13 30  1  0  0  0  0
 14 31  1  0  0  0  0
 15 32  1  0  0  0  0
 15 33  1  0  0  0  0
 16 34  1  0  0  0  0
 16 35  1  0  0  0  0
 17 36  1  0  0  0  0
 18 37  1  0  0  0  0
 18 38  1  0  0  0  0
M  END
>  <energy>
41.899648485943288

$$$$
N1(C=C[C@H](C=C1)[C@@H]1C=CN(C=C1)CC=C)CC=C
                    3D

 38 39  0  0  0  0  0  0  0  0999 V2000
    3.1012   -0.1332    0.9081 N   0  0  0  0  0  0  0  0  0  0  0  0
    2.8421    1.0582    1.5825 C   0  0  0  0  0  0  0  0  0  0  0  0
    1.6082    1.5282    1.8108 C   0  0  0  0  0  0  0  0  0  0  0  0
    0.3748    0.7688    1.3493 C   0  0  0  0  0  0  0  0  0  0  0  0
    0.7435   -0.4844    0.5627 C   0  0  0  0  0  0  0  0  0  0  0  0
    2.0242   -0.8552    0.4024 C   0  0  0  0  0  0  0  0  0  0  0  0
   -0.6196    1.7155    0.6075 C   0  0  0  0  0  0  0  0  0  0  0  0
   -1.9748    1.0442    0.4354 C   0  0  0  0  0  0  0  0  0  0  0  0
   -2.5994    1.0271   -0.7513 C   0  0  0  0  0  0  0  0  0  0  0  0
   -2.0741    1.5987   -1.9038 N   0  0  0  0  0  0  0  0  0  0  0  0
   -0.8113    2.1846   -1.8364 C   0  0  0  0  0  0  0  0  0  0  0  0
   -0.0859    2.2638   -0.7090 C   0  0  0  0  0  0  0  0  0  0  0  0
   -2.8579    1.6341   -3.1469 C   0  0  0  0  0  0  0  0  0  0  0  0
   -2.2594    0.6958   -4.1557 C   0  0  0  0  0  0  0  0  0  0  0  0
   -1.9191    1.0514   -5.4034 C   0  0  0  0  0  0  0  0  0  0  0  0
    4.4794   -0.6164    0.7572 C   0  0  0  0  0  0  0  0  0  0  0  0
    5.1644   -0.0658   -0.4667 C   0  0  0  0  0  0  0  0  0  0  0  0
    4.6811    0.8137   -1.3562 C   0  0  0  0  0  0  0  0  0  0  0  0
    3.7252    1.6011    1.9101 H   0  0  0  0  0  0  0  0  0  0  0  0
    1.4711    2.4655    2.3393 H   0  0  0  0  0  0  0  0  0  0  0  0
   -0.1161    0.4246    2.2747 H   0  0  0  0  0  0  0  0  0  0  0  0
   -0.0572   -1.0871    0.1427 H   0  0  0  0  0  0  0  0  0  0  0  0
    2.2797   -1.7592   -0.1438 H   0  0  0  0  0  0  0  0  0  0  0  0
   -0.7989    2.5924    1.2560 H   0  0  0  0  0  0  0  0  0  0  0  0
   -2.4412    0.5935    1.3045 H   0  0  0  0  0  0  0  0  0  0  0  0
   -3.5790    0.5737   -0.8656 H   0  0  0  0  0  0  0  0  0  0  0  0
   -0.4302    2.5771   -2.7757 H   0  0  0  0  0  0  0  0  0  0  0  0
    0.8908    2.7365   -0.7207 H   0  0  0  0  0  0  0  0  0  0  0  0
   -2.8864    2.6614   -3.5314 H   0  0  0  0  0  0  0  0  0  0  0  0
   -3.9001    1.3361   -2.9620 H   0  0  0  0  0  0  0  0  0  0  0  0
   -2.0933   -0.3254   -3.8236 H   0  0  0  0  0  0  0  0  0  0  0  0
   -2.0690    2.0659   -5.7663 H   0  0  0  0  0  0  0  0  0  0  0  0
   -1.4764    0.3310   -6.0858 H   0  0  0  0  0  0  0  0  0  0  0  0
    4.4943   -1.7143    0.7049 H   0  0  0  0  0  0  0  0  0  0  0  0
    5.0693   -0.3407    1.6416 H   0  0  0  0  0  0  0  0  0  0  0  0
    6.1724   -0.4501   -0.6253 H   0  0  0  0  0  0  0  0  0  0  0  0
    5.2832    1.1390   -2.1943 H   0  0  0  0  0  0  0  0  0  0  0  0
    3.6778    1.2245   -1.2610 H   0  0  0  0  0  0  0  0  0  0  0  0
  2  1  1  0  0  0  0
  3  2  2  0  0  0  0
  4  3  1  0  0  0  0
  5  4  1  0  0  0  0
  6  5  2  0  0  0  0
  6  1  1  0  0  0  0
  7  4  1  0  0  0  0
  8  7  1  0  0  0  0
  9  8  2  0  0  0  0
 10  9  1  0  0  0  0
 11 10  1  0  0  0  0
 12 11  2  0  0  0  0
 12  7  1  0  0  0  0
 13 10  1  0  0  0  0
 14 13  1  0  0  0  0
 15 14  2  0  0  0  0
 16  1  1  0  0  0  0
 17 16  1  0  0  0  0
 18 17  2  0  0  0  0
  2 19  1  0  0  0  0
  3 20  1  0  0  0  0
  4 21  1  0  0  0  0
  5 22  1  0  0  0  0
  6 23  1  0  0  0  0
  7 24  1  0  0  0  0
  8 25  1  0  0  0  0
  9 26  1  0  0  0  0
 11 27  1  0  0  0  0
 12 28  1  0  0  0  0
 13 29  1  0  0  0  0
 13 30  1  0  0  0  0
 14 31  1  0  0  0  0
 15 32  1  0  0  0  0
 15 33  1  0  0  0  0
 16 34  1  0  0  0  0
 16 35  1  0  0  0  0
 17 36  1  0  0  0  0
 18 37  1  0  0  0  0
 18 38  1  0  0  0  0
M  END
>  <energy>
42.325573442923002

$$$$
N1(C=C[C@H](C=C1)[C@@H]1C=CN(C=C1)CC=C)CC=C
                    3D

 38 39  0  0  0  0  0  0  0  0999 V2000
   -2.1548    1.0296   -2.0350 N   0  0  0  0  0  0  0  0  0  0  0  0
   -1.1959    0.0260   -1.9178 C   0  0  0  0  0  0  0  0  0  0  0  0
   -0.5974   -0.2994   -0.7632 C   0  0  0  0  0  0  0  0  0  0  0  0
   -0.9411    0.4083    0.5379 C   0  0  0  0  0  0  0  0  0  0  0  0
   -1.9611    1.5246    0.3176 C   0  0  0  0  0  0  0  0  0  0  0  0
   -2.4894    1.7580   -0.8942 C   0  0  0  0  0  0  0  0  0  0  0  0
    0.3123    0.9141    1.3227 C   0  0  0  0  0  0  0  0  0  0  0  0
    1.1501    1.9100    0.5381 C   0  0  0  0  0  0  0  0  0  0  0  0
    2.4593    1.7150    0.3308 C   0  0  0  0  0  0  0  0  0  0  0  0
    3.1646    0.6173    0.8175 N   0  0  0  0  0  0  0  0  0  0  0  0
    2.4749   -0.3185    1.5852 C   0  0  0  0  0  0  0  0  0  0  0  0
    1.1609   -0.2412    1.8487 C   0  0  0  0  0  0  0  0  0  0  0  0
    4.6198    0.5089    0.6024 C   0  0  0  0  0  0  0  0  0  0  0  0
    4.9863   -0.1455   -0.7057 C   0  0  0  0  0  0  0  0  0  0  0  0
    4.1826   -0.7328   -1.6032 C   0  0  0  0  0  0  0  0  0  0  0  0
   -2.7399    1.3570   -3.3468 C   0  0  0  0  0  0  0  0  0  0  0  0
   -1.8495    2.2581   -4.1727 C   0  0  0  0  0  0  0  0  0  0  0  0
   -0.7641    2.9397   -3.7760 C   0  0  0  0  0  0  0  0  0  0  0  0
   -0.9507   -0.4871   -2.8444 H   0  0  0  0  0  0  0  0  0  0  0  0
    0.1464   -1.0882   -0.7405 H   0  0  0  0  0  0  0  0  0  0  0  0
   -1.4475   -0.3414    1.1659 H   0  0  0  0  0  0  0  0  0  0  0  0
   -2.2635    2.1264    1.1672 H   0  0  0  0  0  0  0  0  0  0  0  0
   -3.2252    2.5419   -1.0495 H   0  0  0  0  0  0  0  0  0  0  0  0
   -0.0451    1.4464    2.2170 H   0  0  0  0  0  0  0  0  0  0  0  0
    0.6617    2.7965    0.1482 H   0  0  0  0  0  0  0  0  0  0  0  0
    3.0522    2.4247   -0.2381 H   0  0  0  0  0  0  0  0  0  0  0  0
    3.0804   -1.1367    1.9669 H   0  0  0  0  0  0  0  0  0  0  0  0
    0.6786   -0.9981    2.4610 H   0  0  0  0  0  0  0  0  0  0  0  0
    5.0865   -0.0523    1.4228 H   0  0  0  0  0  0  0  0  0  0  0  0
    5.0739    1.5090    0.6277 H   0  0  0  0  0  0  0  0  0  0  0  0
    6.0536   -0.1202   -0.9260 H   0  0  0  0  0  0  0  0  0  0  0  0
    3.1078   -0.7928   -1.4551 H   0  0  0  0  0  0  0  0  0  0  0  0
    4.5928   -1.1637   -2.5124 H   0  0  0  0  0  0  0  0  0  0  0  0
   -3.7236    1.8332   -3.2334 H   0  0  0  0  0  0  0  0  0  0  0  0
   -2.9138    0.4333   -3.9123 H   0  0  0  0  0  0  0  0  0  0  0  0
   -2.1401    2.3391   -5.2177 H   0  0  0  0  0  0  0  0  0  0  0  0
   -0.1983    3.5489   -4.4772 H   0  0  0  0  0  0  0  0  0  0  0  0
   -0.4091    2.8956   -2.7507 H   0  0  0  0  0  0  0  0  0  0  0  0
  2  1  1  0  0  0  0
  3  2  2  0  0  0  0
  4  3  1  0  0  0  0
  5  4  1  0  0  0  0
  6  5  2  0  0  0  0
  6  1  1  0  0  0  0
  7  4  1  0  0  0  0
  8  7  1  0  0  0  0
  9  8  2  0  0  0  0
 10  9  1  0  0  0  0
 11 10  1  0  0  0  0
 12 11  2  0  0  0  0
 12  7  1  0  0  0  0
 13 10  1  0  0  0  0
 14 13  1  0  0  0  0
 15 14  2  0  0  0  0
 16  1  1  0  0  0  0
 17 16  1  0  0  0  0
 18 17  2  0  0  0  0
  2 19  1  0  0  0  0
  3 20  1  0  0  0  0
  4 21  1  0  0  0  0
  5 22  1  0  0  0  0
  6 23  1  0  0  0  0
  7 24  1  0  0  0  0
  8 25  1  0  0  0  0
  9 26  1  0  0  0  0
 11 27  1  0  0  0  0
 12 28  1  0  0  0  0
 13 29  1  0  0  0  0
 13 30  1  0  0  0  0
 14 31  1  0  0  0  0
 15 32  1  0  0  0  0
 15 33  1  0  0  0  0
 16 34  1  0  0  0  0
 16 35  1  0  0  0  0
 17 36  1  0  0  0  0
 18 37  1  0  0  0  0
 18 38  1  0  0  0  0
M  END
>  <energy>
42.555647106925747

$$$$
N1(C=C[C@H](C=C1)[C@@H]1C=CN(C=C1)CC=C)CC=C
                    3D

 38 39  0  0  0  0  0  0  0  0999 V2000
    3.3551    0.1757    1.4353 N   0  0  0  0  0  0  0  0  0  0  0  0
    2.9695    1.4477    1.0292 C   0  0  0  0  0  0  0  0  0  0  0  0
    1.7294    1.7545    0.6234 C   0  0  0  0  0  0  0  0  0  0  0  0
    0.6261    0.7052    0.5448 C   0  0  0  0  0  0  0  0  0  0  0  0
    1.1092   -0.6303    1.1122 C   0  0  0  0  0  0  0  0  0  0  0  0
    2.3841   -0.8174    1.4895 C   0  0  0  0  0  0  0  0  0  0  0  0
    0.0455    0.5138   -0.9043 C   0  0  0  0  0  0  0  0  0  0  0  0
   -0.1076    1.8223   -1.6729 C   0  0  0  0  0  0  0  0  0  0  0  0
   -1.3014    2.2551   -2.1013 C   0  0  0  0  0  0  0  0  0  0  0  0
   -2.4879    1.5560   -1.9155 N   0  0  0  0  0  0  0  0  0  0  0  0
   -2.4202    0.2987   -1.3241 C   0  0  0  0  0  0  0  0  0  0  0  0
   -1.2842   -0.2410   -0.8546 C   0  0  0  0  0  0  0  0  0  0  0  0
   -3.7592    2.0848   -2.4356 C   0  0  0  0  0  0  0  0  0  0  0  0
   -3.8939    1.7108   -3.8851 C   0  0  0  0  0  0  0  0  0  0  0  0
   -4.0018    2.5848   -4.8958 C   0  0  0  0  0  0  0  0  0  0  0  0
    4.7539   -0.1036    1.7938 C   0  0  0  0  0  0  0  0  0  0  0  0
    5.5389   -0.3243    0.5305 C   0  0  0  0  0  0  0  0  0  0  0  0
    6.5619    0.4363    0.1168 C   0  0  0  0  0  0  0  0  0  0  0  0
    3.7518    2.1997    1.0666 H   0  0  0  0  0  0  0  0  0  0  0  0
    1.4921    2.7774    0.3503 H   0  0  0  0  0  0  0  0  0  0  0  0
   -0.1815    1.0595    1.2003 H   0  0  0  0  0  0  0  0  0  0  0  0
    0.3982   -1.4436    1.2052 H   0  0  0  0  0  0  0  0  0  0  0  0
    2.7219   -1.7751    1.8745 H   0  0  0  0  0  0  0  0  0  0  0  0
    0.7432   -0.1051   -1.4860 H   0  0  0  0  0  0  0  0  0  0  0  0
    0.7846    2.3988   -1.8918 H   0  0  0  0  0  0  0  0  0  0  0  0
   -1.3981    3.1888   -2.6471 H   0  0  0  0  0  0  0  0  0  0  0  0
   -3.3612   -0.2399   -1.2768 H   0  0  0  0  0  0  0  0  0  0  0  0
   -1.3001   -1.2399   -0.4320 H   0  0  0  0  0  0  0  0  0  0  0  0
   -3.7958    3.1735   -2.2982 H   0  0  0  0  0  0  0  0  0  0  0  0
   -4.6070    1.6725   -1.8752 H   0  0  0  0  0  0  0  0  0  0  0  0
   -3.8927    0.6457   -4.1042 H   0  0  0  0  0  0  0  0  0  0  0  0
   -3.9915    3.6582   -4.7300 H   0  0  0  0  0  0  0  0  0  0  0  0
   -4.0829    2.2341   -5.9203 H   0  0  0  0  0  0  0  0  0  0  0  0
    4.8285   -0.9983    2.4251 H   0  0  0  0  0  0  0  0  0  0  0  0
    5.1669    0.7271    2.3808 H   0  0  0  0  0  0  0  0  0  0  0  0
    5.2227   -1.1636   -0.0849 H   0  0  0  0  0  0  0  0  0  0  0  0
    7.0666    0.2223   -0.8203 H   0  0  0  0  0  0  0  0  0  0  0  0
    6.9011    1.2940    0.6892 H   0  0  0  0  0  0  0  0  0  0  0  0
  2  1  1  0  0  0  0
  3  2  2  0  0  0  0
  4  3  1  0  0  0  0
  5  4  1  0  0  0  0
  6  5  2  0  0  0  0
  6  1  1  0  0  0  0
  7  4  1  0  0  0  0
  8  7  1  0  0  0  0
  9  8  2  0  0  0  0
 10  9  1  0  0  0  0
 11 10  1  0  0  0  0
 12 11  2  0  0  0  0
 12  7  1  0  0  0  0
 13 10  1  0  0  0  0
 14 13  1  0  0  0  0
 15 14  2  0  0  0  0
 16  1  1  0  0  0  0
 17 16  1  0  0  0  0
 18 17  2  0  0  0  0
  2 19  1  0  0  0  0
  3 20  1  0  0  0  0
  4 21  1  0  0  0  0
  5 22  1  0  0  0  0
  6 23  1  0  0  0  0
  7 24  1  0  0  0  0
  8 25  1  0  0  0  0
  9 26  1  0  0  0  0
 11 27  1  0  0  0  0
 12 28  1  0  0  0  0
 13 29  1  0  0  0  0
 13 30  1  0  0  0  0
 14 31  1  0  0  0  0
 15 32  1  0  0  0  0
 15 33  1  0  0  0  0
 16 34  1  0  0  0  0
 16 35  1  0  0  0  0
 17 36  1  0  0  0  0
 18 37  1  0  0  0  0
 18 38  1  0  0  0  0
M  END
>  <energy>
42.79364367971278

$$$$
N1(C=C[C@H](C=C1)[C@@H]1C=CN(C=C1)CC=C)CC=C
                    3D

 38 39  0  0  0  0  0  0  0  0999 V2000
    3.2131    0.1342    1.5050 N   0  0  0  0  0  0  0  0  0  0  0  0
    2.4956    1.3102    1.6915 C   0  0  0  0  0  0  0  0  0  0  0  0
    1.2915    1.5365    1.1456 C   0  0  0  0  0  0  0  0  0  0  0  0
    0.6143    0.5194    0.2337 C   0  0  0  0  0  0  0  0  0  0  0  0
    1.4048   -0.7922    0.2150 C   0  0  0  0  0  0  0  0  0  0  0  0
    2.6087   -0.8962    0.7978 C   0  0  0  0  0  0  0  0  0  0  0  0
    0.4051    1.0479   -1.2353 C   0  0  0  0  0  0  0  0  0  0  0  0
   -0.1303    2.4785   -1.3058 C   0  0  0  0  0  0  0  0  0  0  0  0
   -1.2959    2.7718   -1.9021 C   0  0  0  0  0  0  0  0  0  0  0  0
   -2.1031    1.8256   -2.5224 N   0  0  0  0  0  0  0  0  0  0  0  0
   -1.6364    0.5173   -2.5935 C   0  0  0  0  0  0  0  0  0  0  0  0
   -0.4885    0.1026   -2.0384 C   0  0  0  0  0  0  0  0  0  0  0  0
   -3.3147    2.2288   -3.2596 C   0  0  0  0  0  0  0  0  0  0  0  0
   -4.5372    1.6978   -2.5625 C   0  0  0  0  0  0  0  0  0  0  0  0
   -5.4476    0.8866   -3.1200 C   0  0  0  0  0  0  0  0  0  0  0  0
    4.5704   -0.0227    2.0506 C   0  0  0  0  0  0  0  0  0  0  0  0
    5.5656    0.3255    0.9772 C   0  0  0  0  0  0  0  0  0  0  0  0
    6.6019   -0.4425    0.6096 C   0  0  0  0  0  0  0  0  0  0  0  0
    2.9680    2.0442    2.3333 H   0  0  0  0  0  0  0  0  0  0  0  0
    0.7637    2.4590    1.3634 H   0  0  0  0  0  0  0  0  0  0  0  0
   -0.3647    0.2952    0.6806 H   0  0  0  0  0  0  0  0  0  0  0  0
    0.9794   -1.6488   -0.2957 H   0  0  0  0  0  0  0  0  0  0  0  0
    3.1797   -1.8225    0.7506 H   0  0  0  0  0  0  0  0  0  0  0  0
    1.3851    1.0617   -1.7341 H   0  0  0  0  0  0  0  0  0  0  0  0
    0.4791    3.2788   -0.8990 H   0  0  0  0  0  0  0  0  0  0  0  0
   -1.6560    3.7945   -1.9549 H   0  0  0  0  0  0  0  0  0  0  0  0
   -2.2681   -0.1627   -3.1573 H   0  0  0  0  0  0  0  0  0  0  0  0
   -0.1752   -0.9245   -2.1708 H   0  0  0  0  0  0  0  0  0  0  0  0
   -3.2546    1.8624   -4.2937 H   0  0  0  0  0  0  0  0  0  0  0  0
   -3.3953    3.3226   -3.3200 H   0  0  0  0  0  0  0  0  0  0  0  0
   -4.6703    2.0122   -1.5303 H   0  0  0  0  0  0  0  0  0  0  0  0
   -5.3455    0.5387   -4.1438 H   0  0  0  0  0  0  0  0  0  0  0  0
   -6.3131    0.5520   -2.5552 H   0  0  0  0  0  0  0  0  0  0  0  0
    4.7197   -1.0482    2.4143 H   0  0  0  0  0  0  0  0  0  0  0  0
    4.7207    0.6394    2.9101 H   0  0  0  0  0  0  0  0  0  0  0  0
    5.3986    1.2671    0.4577 H   0  0  0  0  0  0  0  0  0  0  0  0
    7.2658   -0.1323   -0.1942 H   0  0  0  0  0  0  0  0  0  0  0  0
    6.8102   -1.3960    1.0888 H   0  0  0  0  0  0  0  0  0  0  0  0
  2  1  1  0  0  0  0
  3  2  2  0  0  0  0
  4  3  1  0  0  0  0
  5  4  1  0  0  0  0
  6  5  2  0  0  0  0
  6  1  1  0  0  0  0
  7  4  1  0  0  0  0
  8  7  1  0  0  0  0
  9  8  2  0  0  0  0
 10  9  1  0  0  0  0
 11 10  1  0  0  0  0
 12 11  2  0  0  0  0
 12  7  1  0  0  0  0
 13 10  1  0  0  0  0
 14 13  1  0  0  0  0
 15 14  2  0  0  0  0
 16  1  1  0  0  0  0
 17 16  1  0  0  0  0
 18 17  2  0  0  0  0
  2 19  1  0  0  0  0
  3 20  1  0  0  0  0
  4 21  1  0  0  0  0
  5 22  1  0  0  0  0
  6 23  1  0  0  0  0
  7 24  1  0  0  0  0
  8 25  1  0  0  0  0
  9 26  1  0  0  0  0
 11 27  1  0  0  0  0
 12 28  1  0  0  0  0
 13 29  1  0  0  0  0
 13 30  1  0  0  0  0
 14 31  1  0  0  0  0
 15 32  1  0  0  0  0
 15 33  1  0  0  0  0
 16 34  1  0  0  0  0
 16 35  1  0  0  0  0
 17 36  1  0  0  0  0
 18 37  1  0  0  0  0
 18 38  1  0  0  0  0
M  END
>  <energy>
43.693486745943503

$$$$
N1(C=C[C@H](C=C1)[C@@H]1C=CN(C=C1)CC=C)CC=C
                    3D

 38 39  0  0  0  0  0  0  0  0999 V2000
    3.1564   -0.0138    1.2038 N   0  0  0  0  0  0  0  0  0  0  0  0
    2.9778    1.3410    1.4917 C   0  0  0  0  0  0  0  0  0  0  0  0
    1.7802    1.9513    1.4700 C   0  0  0  0  0  0  0  0  0  0  0  0
    0.5025    1.1760    1.1757 C   0  0  0  0  0  0  0  0  0  0  0  0
    0.7906   -0.2724    0.8277 C   0  0  0  0  0  0  0  0  0  0  0  0
    2.0401   -0.7649    0.8600 C   0  0  0  0  0  0  0  0  0  0  0  0
   -0.4228    1.9013    0.1353 C   0  0  0  0  0  0  0  0  0  0  0  0
   -1.8052    1.2576    0.1016 C   0  0  0  0  0  0  0  0  0  0  0  0
   -2.3534    0.8284   -1.0463 C   0  0  0  0  0  0  0  0  0  0  0  0
   -1.7451    0.9848   -2.2890 N   0  0  0  0  0  0  0  0  0  0  0  0
   -0.4816    1.5647   -2.3327 C   0  0  0  0  0  0  0  0  0  0  0  0
    0.1784    2.0098   -1.2537 C   0  0  0  0  0  0  0  0  0  0  0  0
   -2.4129    0.5740   -3.5353 C   0  0  0  0  0  0  0  0  0  0  0  0
   -3.6039    1.4538   -3.8033 C   0  0  0  0  0  0  0  0  0  0  0  0
   -3.6109    2.5154   -4.6275 C   0  0  0  0  0  0  0  0  0  0  0  0
    4.4764   -0.6572    1.3292 C   0  0  0  0  0  0  0  0  0  0  0  0
    5.3003   -0.6261    0.0677 C   0  0  0  0  0  0  0  0  0  0  0  0
    5.0503    0.0051   -1.0883 C   0  0  0  0  0  0  0  0  0  0  0  0
    3.8875    1.8841    1.7276 H   0  0  0  0  0  0  0  0  0  0  0  0
    1.6990    3.0061    1.7051 H   0  0  0  0  0  0  0  0  0  0  0  0
   -0.0525    1.1623    2.1270 H   0  0  0  0  0  0  0  0  0  0  0  0
   -0.0324   -0.9173    0.5568 H   0  0  0  0  0  0  0  0  0  0  0  0
    2.2326   -1.8052    0.6229 H   0  0  0  0  0  0  0  0  0  0  0  0
   -0.5707    2.9323    0.4857 H   0  0  0  0  0  0  0  0  0  0  0  0
   -2.3346    1.1373    1.0400 H   0  0  0  0  0  0  0  0  0  0  0  0
   -3.3231    0.3481   -1.0579 H   0  0  0  0  0  0  0  0  0  0  0  0
   -0.0366    1.6434   -3.3217 H   0  0  0  0  0  0  0  0  0  0  0  0
    1.1568    2.4599   -1.3674 H   0  0  0  0  0  0  0  0  0  0  0  0
   -2.7318   -0.4736   -3.4686 H   0  0  0  0  0  0  0  0  0  0  0  0
   -1.7179    0.6216   -4.3855 H   0  0  0  0  0  0  0  0  0  0  0  0
   -4.5247    1.1695   -3.3006 H   0  0  0  0  0  0  0  0  0  0  0  0
   -2.7104    2.8508   -5.1343 H   0  0  0  0  0  0  0  0  0  0  0  0
   -4.5118    3.0982   -4.7785 H   0  0  0  0  0  0  0  0  0  0  0  0
    4.3412   -1.7099    1.6086 H   0  0  0  0  0  0  0  0  0  0  0  0
    5.0483   -0.2024    2.1479 H   0  0  0  0  0  0  0  0  0  0  0  0
    6.2100   -1.2190    0.1184 H   0  0  0  0  0  0  0  0  0  0  0  0
    5.7450   -0.0754   -1.9230 H   0  0  0  0  0  0  0  0  0  0  0  0
    4.1639    0.6158   -1.2300 H   0  0  0  0  0  0  0  0  0  0  0  0
  2  1  1  0  0  0  0
  3  2  2  0  0  0  0
  4  3  1  0  0  0  0
  5  4  1  0  0  0  0
  6  5  2  0  0  0  0
  6  1  1  0  0  0  0
  7  4  1  0  0  0  0
  8  7  1  0  0  0  0
  9  8  2  0  0  0  0
 10  9  1  0  0  0  0
 11 10  1  0  0  0  0
 12 11  2  0  0  0  0
 12  7  1  0  0  0  0
 13 10  1  0  0  0  0
 14 13  1  0  0  0  0
 15 14  2  0  0  0  0
 16  1  1  0  0  0  0
 17 16  1  0  0  0  0
 18 17  2  0  0  0  0
  2 19  1  0  0  0  0
  3 20  1  0  0  0  0
  4 21  1  0  0  0  0
  5 22  1  0  0  0  0
  6 23  1  0  0  0  0
  7 24  1  0  0  0  0
  8 25  1  0  0  0  0
  9 26  1  0  0  0  0
 11 27  1  0  0  0  0
 12 28  1  0  0  0  0
 13 29  1  0  0  0  0
 13 30  1  0  0  0  0
 14 31  1  0  0  0  0
 15 32  1  0  0  0  0
 15 33  1  0  0  0  0
 16 34  1  0  0  0  0
 16 35  1  0  0  0  0
 17 36  1  0  0  0  0
 18 37  1  0  0  0  0
 18 38  1  0  0  0  0
M  END
>  <energy>
44.016518406221927

$$$$
N1(C=C[C@H](C=C1)[C@@H]1C=CN(C=C1)CC=C)CC=C
                    3D

 38 39  0  0  0  0  0  0  0  0999 V2000
    3.4761    0.5842    1.1849 N   0  0  0  0  0  0  0  0  0  0  0  0
    3.3689    1.0456   -0.1234 C   0  0  0  0  0  0  0  0  0  0  0  0
    2.2084    1.4046   -0.6915 C   0  0  0  0  0  0  0  0  0  0  0  0
    0.8779    1.3043    0.0505 C   0  0  0  0  0  0  0  0  0  0  0  0
    1.1073    0.9003    1.5071 C   0  0  0  0  0  0  0  0  0  0  0  0
    2.3235    0.5662    1.9649 C   0  0  0  0  0  0  0  0  0  0  0  0
   -0.1551    0.3359   -0.6381 C   0  0  0  0  0  0  0  0  0  0  0  0
   -0.1094    0.3721   -2.1640 C   0  0  0  0  0  0  0  0  0  0  0  0
   -1.1804    0.7074   -2.8985 C   0  0  0  0  0  0  0  0  0  0  0  0
   -2.4219    1.0193   -2.3550 N   0  0  0  0  0  0  0  0  0  0  0  0
   -2.5705    0.9350   -0.9751 C   0  0  0  0  0  0  0  0  0  0  0  0
   -1.5740    0.6114   -0.1357 C   0  0  0  0  0  0  0  0  0  0  0  0
   -3.5661    1.3455   -3.2221 C   0  0  0  0  0  0  0  0  0  0  0  0
   -3.6503    2.8369   -3.3985 C   0  0  0  0  0  0  0  0  0  0  0  0
   -4.7731    3.5579   -3.2651 C   0  0  0  0  0  0  0  0  0  0  0  0
    4.7893    0.2380    1.7582 C   0  0  0  0  0  0  0  0  0  0  0  0
    5.2173   -1.1158    1.2610 C   0  0  0  0  0  0  0  0  0  0  0  0
    6.4493   -1.4200    0.8270 C   0  0  0  0  0  0  0  0  0  0  0  0
    4.3111    1.1103   -0.6611 H   0  0  0  0  0  0  0  0  0  0  0  0
    2.2013    1.7946   -1.7042 H   0  0  0  0  0  0  0  0  0  0  0  0
    0.4530    2.3173    0.0623 H   0  0  0  0  0  0  0  0  0  0  0  0
    0.2598    0.8912    2.1828 H   0  0  0  0  0  0  0  0  0  0  0  0
    2.4716    0.2738    3.0005 H   0  0  0  0  0  0  0  0  0  0  0  0
    0.0882   -0.6961   -0.3491 H   0  0  0  0  0  0  0  0  0  0  0  0
    0.8188    0.0983   -2.6555 H   0  0  0  0  0  0  0  0  0  0  0  0
   -1.1348    0.7353   -3.9829 H   0  0  0  0  0  0  0  0  0  0  0  0
   -3.5735    1.1373   -0.6093 H   0  0  0  0  0  0  0  0  0  0  0  0
   -1.7725    0.5401    0.9282 H   0  0  0  0  0  0  0  0  0  0  0  0
   -4.4946    0.9431   -2.7970 H   0  0  0  0  0  0  0  0  0  0  0  0
   -3.4438    0.8776   -4.2056 H   0  0  0  0  0  0  0  0  0  0  0  0
   -2.7234    3.3459   -3.6549 H   0  0  0  0  0  0  0  0  0  0  0  0
   -5.7245    3.0962   -3.0155 H   0  0  0  0  0  0  0  0  0  0  0  0
   -4.7679    4.6357   -3.4082 H   0  0  0  0  0  0  0  0  0  0  0  0
    4.7388    0.2077    2.8533 H   0  0  0  0  0  0  0  0  0  0  0  0
    5.5241    1.0072    1.4926 H   0  0  0  0  0  0  0  0  0  0  0  0
    4.4512   -1.8884    1.2606 H   0  0  0  0  0  0  0  0  0  0  0  0
    6.6871   -2.4238    0.4843 H   0  0  0  0  0  0  0  0  0  0  0  0
    7.2540   -0.6900    0.8153 H   0  0  0  0  0  0  0  0  0  0  0  0
  2  1  1  0  0  0  0
  3  2  2  0  0  0  0
  4  3  1  0  0  0  0
  5  4  1  0  0  0  0
  6  5  2  0  0  0  0
  6  1  1  0  0  0  0
  7  4  1  0  0  0  0
  8  7  1  0  0  0  0
  9  8  2  0  0  0  0
 10  9  1  0  0  0  0
 11 10  1  0  0  0  0
 12 11  2  0  0  0  0
 12  7  1  0  0  0  0
 13 10  1  0  0  0  0
 14 13  1  0  0  0  0
 15 14  2  0  0  0  0
 16  1  1  0  0  0  0
 17 16  1  0  0  0  0
 18 17  2  0  0  0  0
  2 19  1  0  0  0  0
  3 20  1  0  0  0  0
  4 21  1  0  0  0  0
  5 22  1  0  0  0  0
  6 23  1  0  0  0  0
  7 24  1  0  0  0  0
  8 25  1  0  0  0  0
  9 26  1  0  0  0  0
 11 27  1  0  0  0  0
 12 28  1  0  0  0  0
 13 29  1  0  0  0  0
 13 30  1  0  0  0  0
 14 31  1  0  0  0  0
 15 32  1  0  0  0  0
 15 33  1  0  0  0  0
 16 34  1  0  0  0  0
 16 35  1  0  0  0  0
 17 36  1  0  0  0  0
 18 37  1  0  0  0  0
 18 38  1  0  0  0  0
M  END
>  <energy>
44.464147291864315

$$$$
N1(C=C[C@H](C=C1)[C@@H]1C=CN(C=C1)CC=C)CC=C
                    3D

 38 39  0  0  0  0  0  0  0  0999 V2000
   -2.2888    1.2241   -1.7199 N   0  0  0  0  0  0  0  0  0  0  0  0
   -2.4316   -0.0033   -1.0720 C   0  0  0  0  0  0  0  0  0  0  0  0
   -1.8616   -0.2875    0.1133 C   0  0  0  0  0  0  0  0  0  0  0  0
   -0.9896    0.7360    0.8381 C   0  0  0  0  0  0  0  0  0  0  0  0
   -0.9926    2.0732    0.1098 C   0  0  0  0  0  0  0  0  0  0  0  0
   -1.5808    2.2290   -1.0748 C   0  0  0  0  0  0  0  0  0  0  0  0
    0.4662    0.2453    1.1876 C   0  0  0  0  0  0  0  0  0  0  0  0
    1.3755    1.4222    1.5271 C   0  0  0  0  0  0  0  0  0  0  0  0
    2.5004    1.6543    0.8324 C   0  0  0  0  0  0  0  0  0  0  0  0
    2.9734    0.8056   -0.1626 N   0  0  0  0  0  0  0  0  0  0  0  0
    2.2540   -0.3521   -0.4485 C   0  0  0  0  0  0  0  0  0  0  0  0
    1.0940   -0.6635    0.1450 C   0  0  0  0  0  0  0  0  0  0  0  0
    4.3620    0.9330   -0.6277 C   0  0  0  0  0  0  0  0  0  0  0  0
    5.2570    0.4735    0.4918 C   0  0  0  0  0  0  0  0  0  0  0  0
    5.8157   -0.7402    0.5662 C   0  0  0  0  0  0  0  0  0  0  0  0
   -2.8670    1.4911   -3.0430 C   0  0  0  0  0  0  0  0  0  0  0  0
   -1.7618    1.4859   -4.0681 C   0  0  0  0  0  0  0  0  0  0  0  0
   -1.5071    2.5024   -4.9081 C   0  0  0  0  0  0  0  0  0  0  0  0
   -3.0597   -0.7266   -1.5833 H   0  0  0  0  0  0  0  0  0  0  0  0
   -2.0185   -1.2570    0.5806 H   0  0  0  0  0  0  0  0  0  0  0  0
   -1.4902    0.9146    1.8028 H   0  0  0  0  0  0  0  0  0  0  0  0
   -0.4819    2.9181    0.5600 H   0  0  0  0  0  0  0  0  0  0  0  0
   -1.5448    3.1802   -1.6009 H   0  0  0  0  0  0  0  0  0  0  0  0
    0.4116   -0.3556    2.1056 H   0  0  0  0  0  0  0  0  0  0  0  0
    1.0640    2.1009    2.3111 H   0  0  0  0  0  0  0  0  0  0  0  0
    3.1390    2.5057    1.0526 H   0  0  0  0  0  0  0  0  0  0  0  0
    2.7145   -1.0205   -1.1708 H   0  0  0  0  0  0  0  0  0  0  0  0
    0.5960   -1.5963   -0.0925 H   0  0  0  0  0  0  0  0  0  0  0  0
    4.5782    1.9742   -0.9035 H   0  0  0  0  0  0  0  0  0  0  0  0
    4.5300    0.3536   -1.5410 H   0  0  0  0  0  0  0  0  0  0  0  0
    5.3898    1.1774    1.3104 H   0  0  0  0  0  0  0  0  0  0  0  0
    5.6442   -1.4844   -0.2013 H   0  0  0  0  0  0  0  0  0  0  0  0
    6.3975   -1.0368    1.4302 H   0  0  0  0  0  0  0  0  0  0  0  0
   -3.3748    2.4662   -3.0333 H   0  0  0  0  0  0  0  0  0  0  0  0
   -3.6220    0.7460   -3.3263 H   0  0  0  0  0  0  0  0  0  0  0  0
   -1.1272    0.6039   -4.0885 H   0  0  0  0  0  0  0  0  0  0  0  0
   -0.6865    2.4452   -5.6177 H   0  0  0  0  0  0  0  0  0  0  0  0
   -2.1039    3.4094   -4.8974 H   0  0  0  0  0  0  0  0  0  0  0  0
  2  1  1  0  0  0  0
  3  2  2  0  0  0  0
  4  3  1  0  0  0  0
  5  4  1  0  0  0  0
  6  5  2  0  0  0  0
  6  1  1  0  0  0  0
  7  4  1  0  0  0  0
  8  7  1  0  0  0  0
  9  8  2  0  0  0  0
 10  9  1  0  0  0  0
 11 10  1  0  0  0  0
 12 11  2  0  0  0  0
 12  7  1  0  0  0  0
 13 10  1  0  0  0  0
 14 13  1  0  0  0  0
 15 14  2  0  0  0  0
 16  1  1  0  0  0  0
 17 16  1  0  0  0  0
 18 17  2  0  0  0  0
  2 19  1  0  0  0  0
  3 20  1  0  0  0  0
  4 21  1  0  0  0  0
  5 22  1  0  0  0  0
  6 23  1  0  0  0  0
  7 24  1  0  0  0  0
  8 25  1  0  0  0  0
  9 26  1  0  0  0  0
 11 27  1  0  0  0  0
 12 28  1  0  0  0  0
 13 29  1  0  0  0  0
 13 30  1  0  0  0  0
 14 31  1  0  0  0  0
 15 32  1  0  0  0  0
 15 33  1  0  0  0  0
 16 34  1  0  0  0  0
 16 35  1  0  0  0  0
 17 36  1  0  0  0  0
 18 37  1  0  0  0  0
 18 38  1  0  0  0  0
M  END
>  <energy>
50.113977590466781

$$$$
