C1C=CN(C(=C1)C1=CCC=CN1C)C
                    3D

 30 31  0  0  0  0  0  0  0  0999 V2000
    2.3113   -2.0622   -0.5613 C   0  0  0  0  0  0  0  0  0  0  0  0
    3.3082   -1.2842    0.2437 C   0  0  0  0  0  0  0  0  0  0  0  0
    2.9986   -0.0758    0.7341 C   0  0  0  0  0  0  0  0  0  0  0  0
    1.7663    0.5456    0.5469 N   0  0  0  0  0  0  0  0  0  0  0  0
    0.7502   -0.1470   -0.1506 C   0  0  0  0  0  0  0  0  0  0  0  0
    0.9867   -1.3652   -0.6865 C   0  0  0  0  0  0  0  0  0  0  0  0
   -0.5908    0.4384   -0.3378 C   0  0  0  0  0  0  0  0  0  0  0  0
   -0.8898    0.9608   -1.5476 C   0  0  0  0  0  0  0  0  0  0  0  0
   -2.2283    1.5664   -1.8582 C   0  0  0  0  0  0  0  0  0  0  0  0
   -3.1597    1.5688   -0.6820 C   0  0  0  0  0  0  0  0  0  0  0  0
   -2.7828    1.0358    0.4881 C   0  0  0  0  0  0  0  0  0  0  0  0
   -1.5450    0.4359    0.7047 N   0  0  0  0  0  0  0  0  0  0  0  0
   -1.2421   -0.1393    2.0194 C   0  0  0  0  0  0  0  0  0  0  0  0
    1.5519    1.8814    1.1158 C   0  0  0  0  0  0  0  0  0  0  0  0
    2.7182   -2.2377   -1.5628 H   0  0  0  0  0  0  0  0  0  0  0  0
    2.1547   -3.0402   -0.0927 H   0  0  0  0  0  0  0  0  0  0  0  0
    4.2865   -1.7162    0.4142 H   0  0  0  0  0  0  0  0  0  0  0  0
    3.7215    0.4922    1.3118 H   0  0  0  0  0  0  0  0  0  0  0  0
    0.2030   -1.8856   -1.2275 H   0  0  0  0  0  0  0  0  0  0  0  0
   -0.1528    0.9543   -2.3457 H   0  0  0  0  0  0  0  0  0  0  0  0
   -2.6882    1.0041   -2.6794 H   0  0  0  0  0  0  0  0  0  0  0  0
   -2.0824    2.5985   -2.1987 H   0  0  0  0  0  0  0  0  0  0  0  0
   -4.1421    2.0116   -0.7990 H   0  0  0  0  0  0  0  0  0  0  0  0
   -3.4548    1.0393    1.3423 H   0  0  0  0  0  0  0  0  0  0  0  0
   -0.5962   -1.0192    1.9504 H   0  0  0  0  0  0  0  0  0  0  0  0
   -2.1579   -0.4705    2.5211 H   0  0  0  0  0  0  0  0  0  0  0  0
   -0.7610    0.6078    2.6574 H   0  0  0  0  0  0  0  0  0  0  0  0
    1.3202    1.8016    2.1831 H   0  0  0  0  0  0  0  0  0  0  0  0
    2.4551    2.4956    1.0118 H   0  0  0  0  0  0  0  0  0  0  0  0
    0.7440    2.4343    0.6264 H   0  0  0  0  0  0  0  0  0  0  0  0
  2  1  1  0  0  0  0
  3  2  2  0  0  0  0
  4  3  1  0  0  0  0
  5  4  1  0  0  0  0
  6  5  2  0  0  0  0
  6  1  1  0  0  0  0
  7  5  1  0  0  0  0
  8  7  2  0  0  0  0
  9  8  1  0  0  0  0
 10  9  1  0  0  0  0
 11 10  2  0  0  0  0
 12 11  1  0  0  0  0
 12  7  1  0  0  0  0
 13 12  1  0  0  0  0
 14  4  1  0  0  0  0
  1 15  1  0  0  0  0
  1 16  1  0  0  0  0
  2 17  1  0  0  0  0
  3 18  1  0  0  0  0
  6 19  1  0  0  0  0
  8 20  1  0  0  0  0
  9 21  1  0  0  0  0
  9 22  1  0  0  0  0
 10 23  1  0  0  0  0
 11 24  1  0  0  0  0
 13 25  1  0  0  0  0
 13 26  1  0  0  0  0
 13 27  1  0  0  0  0
 14 28  1  0  0  0  0
 14 29  1  0  0  0  0
 14 30  1  0  0  0  0
M  END
>  <energy>
-7.8294228292366057

$$$$
