N1(C=C[C@@H](C=C1C)[C@H]1C=CN(C(=C1)C)CC#N)CC#N
                    3D

 38 39  0  0  0  0  0  0  0  0999 V2000
    3.3522   -0.0066    0.5080 N   0  0  0  0  0  0  0  0  0  0  0  0
    3.0058   -1.3439    0.3151 C   0  0  0  0  0  0  0  0  0  0  0  0
    1.7922   -1.8471    0.5826 C   0  0  0  0  0  0  0  0  0  0  0  0
    0.6661   -0.9568    1.0765 C   0  0  0  0  0  0  0  0  0  0  0  0
    1.1461    0.4592    1.3423 C   0  0  0  0  0  0  0  0  0  0  0  0
    2.3983    0.8769    1.0588 C   0  0  0  0  0  0  0  0  0  0  0  0
    2.7745    2.3102    1.3339 C   0  0  0  0  0  0  0  0  0  0  0  0
   -0.5394   -1.0067    0.0808 C   0  0  0  0  0  0  0  0  0  0  0  0
   -1.7829   -0.3403    0.6388 C   0  0  0  0  0  0  0  0  0  0  0  0
   -2.4202    0.6199   -0.0469 C   0  0  0  0  0  0  0  0  0  0  0  0
   -2.0101    1.0994   -1.2922 N   0  0  0  0  0  0  0  0  0  0  0  0
   -0.8749    0.5259   -1.8971 C   0  0  0  0  0  0  0  0  0  0  0  0
   -0.1762   -0.4552   -1.2866 C   0  0  0  0  0  0  0  0  0  0  0  0
   -0.4185    0.9965   -3.2540 C   0  0  0  0  0  0  0  0  0  0  0  0
   -2.8697    2.0744   -2.0034 C   0  0  0  0  0  0  0  0  0  0  0  0
   -3.8785    1.4045   -2.8479 C   0  0  0  0  0  0  0  0  0  0  0  0
   -4.6887    0.9072   -3.5155 N   0  0  0  0  0  0  0  0  0  0  0  0
    4.6753    0.4648    0.0336 C   0  0  0  0  0  0  0  0  0  0  0  0
    4.6202    1.0047   -1.3419 C   0  0  0  0  0  0  0  0  0  0  0  0
    4.6053    1.4261   -2.4239 N   0  0  0  0  0  0  0  0  0  0  0  0
    3.7955   -1.9752   -0.0798 H   0  0  0  0  0  0  0  0  0  0  0  0
    1.5843   -2.8958    0.4033 H   0  0  0  0  0  0  0  0  0  0  0  0
    0.3365   -1.3717    2.0440 H   0  0  0  0  0  0  0  0  0  0  0  0
    0.4167    1.1469    1.7568 H   0  0  0  0  0  0  0  0  0  0  0  0
    3.1604    2.7965    0.4318 H   0  0  0  0  0  0  0  0  0  0  0  0
    3.5388    2.3529    2.1190 H   0  0  0  0  0  0  0  0  0  0  0  0
    1.9187    2.9020    1.6740 H   0  0  0  0  0  0  0  0  0  0  0  0
   -0.8008   -2.0646   -0.0704 H   0  0  0  0  0  0  0  0  0  0  0  0
   -2.1702   -0.6762    1.5954 H   0  0  0  0  0  0  0  0  0  0  0  0
   -3.3223    1.0740    0.3511 H   0  0  0  0  0  0  0  0  0  0  0  0
    0.6996   -0.8825   -1.7690 H   0  0  0  0  0  0  0  0  0  0  0  0
   -0.0559    2.0273   -3.1904 H   0  0  0  0  0  0  0  0  0  0  0  0
    0.3954    0.3820   -3.6560 H   0  0  0  0  0  0  0  0  0  0  0  0
   -1.2352    0.9485   -3.9806 H   0  0  0  0  0  0  0  0  0  0  0  0
   -2.2601    2.7569   -2.6097 H   0  0  0  0  0  0  0  0  0  0  0  0
   -3.3784    2.7210   -1.2756 H   0  0  0  0  0  0  0  0  0  0  0  0
    5.0867    1.2151    0.7184 H   0  0  0  0  0  0  0  0  0  0  0  0
    5.3932   -0.3641    0.0619 H   0  0  0  0  0  0  0  0  0  0  0  0
  2  1  1  0  0  0  0
  3  2  2  0  0  0  0
  4  3  1  0  0  0  0
  5  4  1  0  0  0  0
  6  5  2  0  0  0  0
  6  1  1  0  0  0  0
  7  6  1  0  0  0  0
  8  4  1  0  0  0  0
  9  8  1  0  0  0  0
 10  9  2  0  0  0  0
 11 10  1  0  0  0  0
 12 11  1  0  0  0  0
 13 12  2  0  0  0  0
 13  8  1  0  0  0  0
 14 12  1  0  0  0  0
 15 11  1  0  0  0  0
 16 15  1  0  0  0  0
 17 16  3  0  0  0  0
 18  1  1  0  0  0  0
 19 18  1  0  0  0  0
 20 19  3  0  0  0  0
  2 21  1  0  0  0  0
  3 22  1  0  0  0  0
  4 23  1  0  0  0  0
  5 24  1  0  0  0  0
  7 25  1  0  0  0  0
  7 26  1  0  0  0  0
  7 27  1  0  0  0  0
  8 28  1  0  0  0  0
  9 29  1  0  0  0  0
 10 30  1  0  0  0  0
 13 31  1  0  0  0  0
 14 32  1  0  0  0  0
 14 33  1  0  0  0  0
 14 34  1  0  0  0  0
 15 35  1  0  0  0  0
 15 36  1  0  0  0  0
 18 37  1  0  0  0  0
 18 38  1  0  0  0  0
M  END
>  <energy>
82.483692640136084

$$$$
N1(C=C[C@@H](C=C1C)[C@H]1C=CN(C(=C1)C)CC#N)CC#N
                    3D

 38 39  0  0  0  0  0  0  0  0999 V2000
    3.2202    0.3304    0.5321 N   0  0  0  0  0  0  0  0  0  0  0  0
    3.0858   -1.0575    0.5721 C   0  0  0  0  0  0  0  0  0  0  0  0
    1.9482   -1.6947    0.8823 C   0  0  0  0  0  0  0  0  0  0  0  0
    0.6768   -0.9162    1.1808 C   0  0  0  0  0  0  0  0  0  0  0  0
    0.9274    0.5837    1.1983 C   0  0  0  0  0  0  0  0  0  0  0  0
    2.1145    1.1361    0.8822 C   0  0  0  0  0  0  0  0  0  0  0  0
    2.2547    2.6392    0.8921 C   0  0  0  0  0  0  0  0  0  0  0  0
   -0.4579   -1.3184    0.1829 C   0  0  0  0  0  0  0  0  0  0  0  0
   -1.8196   -0.7925    0.6052 C   0  0  0  0  0  0  0  0  0  0  0  0
   -2.5923   -0.1011   -0.2453 C   0  0  0  0  0  0  0  0  0  0  0  0
   -2.2370    0.1977   -1.5624 N   0  0  0  0  0  0  0  0  0  0  0  0
   -0.9659   -0.2008   -2.0289 C   0  0  0  0  0  0  0  0  0  0  0  0
   -0.1315   -0.9174   -1.2451 C   0  0  0  0  0  0  0  0  0  0  0  0
   -0.5010    0.1784   -3.4109 C   0  0  0  0  0  0  0  0  0  0  0  0
   -3.2042    0.9125   -2.4321 C   0  0  0  0  0  0  0  0  0  0  0  0
   -3.0703    2.3830   -2.3874 C   0  0  0  0  0  0  0  0  0  0  0  0
   -3.0151    3.5439   -2.3842 N   0  0  0  0  0  0  0  0  0  0  0  0
    4.4613    0.9116   -0.0328 C   0  0  0  0  0  0  0  0  0  0  0  0
    4.3663    1.1175   -1.4939 C   0  0  0  0  0  0  0  0  0  0  0  0
    4.3168    1.2775   -2.6442 N   0  0  0  0  0  0  0  0  0  0  0  0
    3.9798   -1.6215    0.3136 H   0  0  0  0  0  0  0  0  0  0  0  0
    1.9115   -2.7805    0.8859 H   0  0  0  0  0  0  0  0  0  0  0  0
    0.3683   -1.2002    2.1961 H   0  0  0  0  0  0  0  0  0  0  0  0
    0.0764    1.2102    1.4505 H   0  0  0  0  0  0  0  0  0  0  0  0
    2.9174    2.9460    1.7092 H   0  0  0  0  0  0  0  0  0  0  0  0
    1.2912    3.1432    1.0313 H   0  0  0  0  0  0  0  0  0  0  0  0
    2.6720    3.0035   -0.0517 H   0  0  0  0  0  0  0  0  0  0  0  0
   -0.5362   -2.4156    0.1970 H   0  0  0  0  0  0  0  0  0  0  0  0
   -2.1672   -0.9992    1.6118 H   0  0  0  0  0  0  0  0  0  0  0  0
   -3.5684    0.2665    0.0701 H   0  0  0  0  0  0  0  0  0  0  0  0
    0.8456   -1.2087   -1.6159 H   0  0  0  0  0  0  0  0  0  0  0  0
   -0.5068    1.2661   -3.5357 H   0  0  0  0  0  0  0  0  0  0  0  0
    0.5219   -0.1638   -3.6017 H   0  0  0  0  0  0  0  0  0  0  0  0
   -1.1385   -0.2802   -4.1721 H   0  0  0  0  0  0  0  0  0  0  0  0
   -4.2261    0.6429   -2.1365 H   0  0  0  0  0  0  0  0  0  0  0  0
   -3.1181    0.5727   -3.4703 H   0  0  0  0  0  0  0  0  0  0  0  0
    4.7028    1.8593    0.4623 H   0  0  0  0  0  0  0  0  0  0  0  0
    5.3145    0.2528    0.1790 H   0  0  0  0  0  0  0  0  0  0  0  0
  2  1  1  0  0  0  0
  3  2  2  0  0  0  0
  4  3  1  0  0  0  0
  5  4  1  0  0  0  0
  6  5  2  0  0  0  0
  6  1  1  0  0  0  0
  7  6  1  0  0  0  0
  8  4  1  0  0  0  0
  9  8  1  0  0  0  0
 10  9  2  0  0  0  0
 11 10  1  0  0  0  0
 12 11  1  0  0  0  0
 13 12  2  0  0  0  0
 13  8  1  0  0  0  0
 14 12  1  0  0  0  0
 15 11  1  0  0  0  0
 16 15  1  0  0  0  0
 17 16  3  0  0  0  0
 18  1  1  0  0  0  0
 19 18  1  0  0  0  0
 20 19  3  0  0  0  0
  2 21  1  0  0  0  0
  3 22  1  0  0  0  0
  4 23  1  0  0  0  0
  5 24  1  0  0  0  0
  7 25  1  0  0  0  0
  7 26  1  0  0  0  0
  7 27  1  0  0  0  0
  8 28  1  0  0  0  0
  9 29  1  0  0  0  0
 10 30  1  0  0  0  0
 13 31  1  0  0  0  0
 14 32  1  0  0  0  0
 14 33  1  0  0  0  0
 14 34  1  0  0  0  0
 15 35  1  0  0  0  0
 15 36  1  0  0  0  0
 18 37  1  0  0  0  0
 18 38  1  0  0  0  0
M  END
>  <energy>
82.551680412930352

$$$$
N1(C=C[C@@H](C=C1C)[C@H]1C=CN(C(=C1)C)CC#N)CC#N
                    3D

 38 39  0  0  0  0  0  0  0  0999 V2000
    3.2173    0.2320   -0.2941 N   0  0  0  0  0  0  0  0  0  0  0  0
    2.9444   -1.1344   -0.3073 C   0  0  0  0  0  0  0  0  0  0  0  0
    1.8406   -1.6832    0.2196 C   0  0  0  0  0  0  0  0  0  0  0  0
    0.7589   -0.8139    0.8401 C   0  0  0  0  0  0  0  0  0  0  0  0
    1.2286    0.6230    1.0003 C   0  0  0  0  0  0  0  0  0  0  0  0
    2.3737    1.0863    0.4521 C   0  0  0  0  0  0  0  0  0  0  0  0
    2.7553    2.5289    0.6620 C   0  0  0  0  0  0  0  0  0  0  0  0
   -0.5791   -0.9419    0.0337 C   0  0  0  0  0  0  0  0  0  0  0  0
   -1.7558   -0.3046    0.7434 C   0  0  0  0  0  0  0  0  0  0  0  0
   -2.5211    0.6124    0.1281 C   0  0  0  0  0  0  0  0  0  0  0  0
   -2.3067    1.0683   -1.1720 N   0  0  0  0  0  0  0  0  0  0  0  0
   -1.2368    0.5246   -1.9152 C   0  0  0  0  0  0  0  0  0  0  0  0
   -0.4421   -0.4261   -1.3907 C   0  0  0  0  0  0  0  0  0  0  0  0
   -0.9569    1.0164   -3.3141 C   0  0  0  0  0  0  0  0  0  0  0  0
   -3.3058    1.9668   -1.7993 C   0  0  0  0  0  0  0  0  0  0  0  0
   -4.2936    1.2254   -2.6130 C   0  0  0  0  0  0  0  0  0  0  0  0
   -5.0755    0.6684   -3.2704 N   0  0  0  0  0  0  0  0  0  0  0  0
    4.4074    0.7358   -1.0241 C   0  0  0  0  0  0  0  0  0  0  0  0
    5.6565    0.6435   -0.2432 C   0  0  0  0  0  0  0  0  0  0  0  0
    6.6678    0.5851    0.3252 N   0  0  0  0  0  0  0  0  0  0  0  0
    3.6923   -1.7571   -0.7905 H   0  0  0  0  0  0  0  0  0  0  0  0
    1.6824   -2.7557    0.1749 H   0  0  0  0  0  0  0  0  0  0  0  0
    0.5891   -1.2073    1.8516 H   0  0  0  0  0  0  0  0  0  0  0  0
    0.5830    1.2812    1.5716 H   0  0  0  0  0  0  0  0  0  0  0  0
    2.6715    3.0884   -0.2748 H   0  0  0  0  0  0  0  0  0  0  0  0
    3.7841    2.6104    1.0321 H   0  0  0  0  0  0  0  0  0  0  0  0
    2.1139    3.0277    1.3976 H   0  0  0  0  0  0  0  0  0  0  0  0
   -0.8234   -2.0113   -0.0404 H   0  0  0  0  0  0  0  0  0  0  0  0
   -1.9982   -0.6320    1.7489 H   0  0  0  0  0  0  0  0  0  0  0  0
   -3.3821    1.0361    0.6393 H   0  0  0  0  0  0  0  0  0  0  0  0
    0.3644   -0.8485   -1.9836 H   0  0  0  0  0  0  0  0  0  0  0  0
   -0.7521    2.0917   -3.3066 H   0  0  0  0  0  0  0  0  0  0  0  0
   -0.0821    0.5299   -3.7557 H   0  0  0  0  0  0  0  0  0  0  0  0
   -1.8029    0.8155   -3.9756 H   0  0  0  0  0  0  0  0  0  0  0  0
   -2.8040    2.7182   -2.4238 H   0  0  0  0  0  0  0  0  0  0  0  0
   -3.8320    2.5400   -1.0237 H   0  0  0  0  0  0  0  0  0  0  0  0
    4.5191    0.1717   -1.9628 H   0  0  0  0  0  0  0  0  0  0  0  0
    4.2534    1.7739   -1.3409 H   0  0  0  0  0  0  0  0  0  0  0  0
  2  1  1  0  0  0  0
  3  2  2  0  0  0  0
  4  3  1  0  0  0  0
  5  4  1  0  0  0  0
  6  5  2  0  0  0  0
  6  1  1  0  0  0  0
  7  6  1  0  0  0  0
  8  4  1  0  0  0  0
  9  8  1  0  0  0  0
 10  9  2  0  0  0  0
 11 10  1  0  0  0  0
 12 11  1  0  0  0  0
 13 12  2  0  0  0  0
 13  8  1  0  0  0  0
 14 12  1  0  0  0  0
 15 11  1  0  0  0  0
 16 15  1  0  0  0  0
 17 16  3  0  0  0  0
 18  1  1  0  0  0  0
 19 18  1  0  0  0  0
 20 19  3  0  0  0  0
  2 21  1  0  0  0  0
  3 22  1  0  0  0  0
  4 23  1  0  0  0  0
  5 24  1  0  0  0  0
  7 25  1  0  0  0  0
  7 26  1  0  0  0  0
  7 27  1  0  0  0  0
  8 28  1  0  0  0  0
  9 29  1  0  0  0  0
 10 30  1  0  0  0  0
 13 31  1  0  0  0  0
 14 32  1  0  0  0  0
 14 33  1  0  0  0  0
 14 34  1  0  0  0  0
 15 35  1  0  0  0  0
 15 36  1  0  0  0  0
 18 37  1  0  0  0  0
 18 38  1  0  0  0  0
M  END
>  <energy>
83.372580784800306

$$$$
N1(C=C[C@@H](C=C1C)[C@H]1C=CN(C(=C1)C)CC#N)CC#N
                    3D

 38 39  0  0  0  0  0  0  0  0999 V2000
    3.5588    0.0031   -0.2035 N   0  0  0  0  0  0  0  0  0  0  0  0
    2.9058   -1.1947    0.0821 C   0  0  0  0  0  0  0  0  0  0  0  0
    1.6398   -1.2590    0.5152 C   0  0  0  0  0  0  0  0  0  0  0  0
    0.7985    0.0049    0.6284 C   0  0  0  0  0  0  0  0  0  0  0  0
    1.7061    1.2284    0.6904 C   0  0  0  0  0  0  0  0  0  0  0  0
    2.9840    1.2060    0.2579 C   0  0  0  0  0  0  0  0  0  0  0  0
    3.8050    2.4692    0.3072 C   0  0  0  0  0  0  0  0  0  0  0  0
   -0.1965    0.0858   -0.5818 C   0  0  0  0  0  0  0  0  0  0  0  0
   -1.2361   -1.0230   -0.5514 C   0  0  0  0  0  0  0  0  0  0  0  0
   -2.5339   -0.7710   -0.7698 C   0  0  0  0  0  0  0  0  0  0  0  0
   -3.0551    0.4983   -1.0089 N   0  0  0  0  0  0  0  0  0  0  0  0
   -2.1853    1.6070   -0.9473 C   0  0  0  0  0  0  0  0  0  0  0  0
   -0.8625    1.4449   -0.7446 C   0  0  0  0  0  0  0  0  0  0  0  0
   -2.7337    3.0015   -1.1237 C   0  0  0  0  0  0  0  0  0  0  0  0
   -4.4015    0.6091   -1.6189 C   0  0  0  0  0  0  0  0  0  0  0  0
   -4.3343    0.5320   -3.0950 C   0  0  0  0  0  0  0  0  0  0  0  0
   -4.2857    0.4720   -4.2557 N   0  0  0  0  0  0  0  0  0  0  0  0
    4.8325   -0.0282   -0.9572 C   0  0  0  0  0  0  0  0  0  0  0  0
    6.0103   -0.2481   -0.1026 C   0  0  0  0  0  0  0  0  0  0  0  0
    6.9608   -0.4253    0.5403 N   0  0  0  0  0  0  0  0  0  0  0  0
    3.4931   -2.0968   -0.0661 H   0  0  0  0  0  0  0  0  0  0  0  0
    1.1848   -2.2168    0.7394 H   0  0  0  0  0  0  0  0  0  0  0  0
    0.2443   -0.0422    1.5751 H   0  0  0  0  0  0  0  0  0  0  0  0
    1.2638    2.1462    1.0660 H   0  0  0  0  0  0  0  0  0  0  0  0
    3.2717    3.2844    0.8086 H   0  0  0  0  0  0  0  0  0  0  0  0
    4.0479    2.8143   -0.7023 H   0  0  0  0  0  0  0  0  0  0  0  0
    4.7351    2.3035    0.8616 H   0  0  0  0  0  0  0  0  0  0  0  0
    0.3871   -0.0677   -1.5018 H   0  0  0  0  0  0  0  0  0  0  0  0
   -0.9091   -2.0480   -0.4121 H   0  0  0  0  0  0  0  0  0  0  0  0
   -3.2542   -1.5839   -0.8022 H   0  0  0  0  0  0  0  0  0  0  0  0
   -0.2123    2.3147   -0.7607 H   0  0  0  0  0  0  0  0  0  0  0  0
   -3.1115    3.1413   -2.1404 H   0  0  0  0  0  0  0  0  0  0  0  0
   -3.5436    3.1831   -0.4097 H   0  0  0  0  0  0  0  0  0  0  0  0
   -1.9742    3.7692   -0.9476 H   0  0  0  0  0  0  0  0  0  0  0  0
   -4.8940    1.5394   -1.3156 H   0  0  0  0  0  0  0  0  0  0  0  0
   -5.0489   -0.1942   -1.2449 H   0  0  0  0  0  0  0  0  0  0  0  0
    4.7797   -0.8246   -1.7128 H   0  0  0  0  0  0  0  0  0  0  0  0
    4.9566    0.8958   -1.5362 H   0  0  0  0  0  0  0  0  0  0  0  0
  2  1  1  0  0  0  0
  3  2  2  0  0  0  0
  4  3  1  0  0  0  0
  5  4  1  0  0  0  0
  6  5  2  0  0  0  0
  6  1  1  0  0  0  0
  7  6  1  0  0  0  0
  8  4  1  0  0  0  0
  9  8  1  0  0  0  0
 10  9  2  0  0  0  0
 11 10  1  0  0  0  0
 12 11  1  0  0  0  0
 13 12  2  0  0  0  0
 13  8  1  0  0  0  0
 14 12  1  0  0  0  0
 15 11  1  0  0  0  0
 16 15  1  0  0  0  0
 17 16  3  0  0  0  0
 18  1  1  0  0  0  0
 19 18  1  0  0  0  0
 20 19  3  0  0  0  0
  2 21  1  0  0  0  0
  3 22  1  0  0  0  0
  4 23  1  0  0  0  0
  5 24  1  0  0  0  0
  7 25  1  0  0  0  0
  7 26  1  0  0  0  0
  7 27  1  0  0  0  0
  8 28  1  0  0  0  0
  9 29  1  0  0  0  0
 10 30  1  0  0  0  0
 13 31  1  0  0  0  0
 14 32  1  0  0  0  0
 14 33  1  0  0  0  0
 14 34  1  0  0  0  0
 15 35  1  0  0  0  0
 15 36  1  0  0  0  0
 18 37  1  0  0  0  0
 18 38  1  0  0  0  0
M  END
>  <energy>
88.691419702792103

$$$$
N1(C=C[C@@H](C=C1C)[C@H]1C=CN(C(=C1)C)CC#N)CC#N
                    3D

 38 39  0  0  0  0  0  0  0  0999 V2000
    2.9424    0.5437    0.1386 N   0  0  0  0  0  0  0  0  0  0  0  0
    2.6008   -0.6080   -0.5736 C   0  0  0  0  0  0  0  0  0  0  0  0
    1.6311   -1.4564   -0.2116 C   0  0  0  0  0  0  0  0  0  0  0  0
    0.7912   -1.2189    1.0259 C   0  0  0  0  0  0  0  0  0  0  0  0
    1.3873   -0.0890    1.8654 C   0  0  0  0  0  0  0  0  0  0  0  0
    2.3518    0.7409    1.4090 C   0  0  0  0  0  0  0  0  0  0  0  0
    2.7813    1.8948    2.2830 C   0  0  0  0  0  0  0  0  0  0  0  0
   -0.7591   -1.0220    0.7349 C   0  0  0  0  0  0  0  0  0  0  0  0
   -1.2385    0.4152    0.8781 C   0  0  0  0  0  0  0  0  0  0  0  0
   -1.8796    1.0439   -0.1124 C   0  0  0  0  0  0  0  0  0  0  0  0
   -2.1988    0.4583   -1.3362 N   0  0  0  0  0  0  0  0  0  0  0  0
   -1.8467   -0.8935   -1.5535 C   0  0  0  0  0  0  0  0  0  0  0  0
   -1.2171   -1.6161   -0.5970 C   0  0  0  0  0  0  0  0  0  0  0  0
   -2.1495   -1.5374   -2.8864 C   0  0  0  0  0  0  0  0  0  0  0  0
   -2.8591    1.2921   -2.3748 C   0  0  0  0  0  0  0  0  0  0  0  0
   -1.9141    2.2186   -3.0315 C   0  0  0  0  0  0  0  0  0  0  0  0
   -1.2014    2.9650   -3.5669 N   0  0  0  0  0  0  0  0  0  0  0  0
    4.0783    1.3758   -0.3373 C   0  0  0  0  0  0  0  0  0  0  0  0
    4.0332    1.7199   -1.7808 C   0  0  0  0  0  0  0  0  0  0  0  0
    4.0437    1.9862   -2.9118 N   0  0  0  0  0  0  0  0  0  0  0  0
    3.1728   -0.7991   -1.4790 H   0  0  0  0  0  0  0  0  0  0  0  0
    1.4344   -2.3343   -0.8155 H   0  0  0  0  0  0  0  0  0  0  0  0
    0.8849   -2.1347    1.6325 H   0  0  0  0  0  0  0  0  0  0  0  0
    0.9593    0.0461    2.8541 H   0  0  0  0  0  0  0  0  0  0  0  0
    2.2298    1.9140    3.2311 H   0  0  0  0  0  0  0  0  0  0  0  0
    2.5841    2.8482    1.7834 H   0  0  0  0  0  0  0  0  0  0  0  0
    3.8471    1.8265    2.5183 H   0  0  0  0  0  0  0  0  0  0  0  0
   -1.2991   -1.5859    1.5095 H   0  0  0  0  0  0  0  0  0  0  0  0
   -1.0546    0.9347    1.8134 H   0  0  0  0  0  0  0  0  0  0  0  0
   -2.1877    2.0787    0.0098 H   0  0  0  0  0  0  0  0  0  0  0  0
   -0.9763   -2.6588   -0.7743 H   0  0  0  0  0  0  0  0  0  0  0  0
   -1.7568   -2.5591   -2.9478 H   0  0  0  0  0  0  0  0  0  0  0  0
   -3.2318   -1.5879   -3.0622 H   0  0  0  0  0  0  0  0  0  0  0  0
   -1.6779   -0.9613   -3.6934 H   0  0  0  0  0  0  0  0  0  0  0  0
   -3.6801    1.8628   -1.9163 H   0  0  0  0  0  0  0  0  0  0  0  0
   -3.3386    0.6749   -3.1401 H   0  0  0  0  0  0  0  0  0  0  0  0
    4.1402    2.3181    0.2195 H   0  0  0  0  0  0  0  0  0  0  0  0
    5.0122    0.8368   -0.1277 H   0  0  0  0  0  0  0  0  0  0  0  0
  2  1  1  0  0  0  0
  3  2  2  0  0  0  0
  4  3  1  0  0  0  0
  5  4  1  0  0  0  0
  6  5  2  0  0  0  0
  6  1  1  0  0  0  0
  7  6  1  0  0  0  0
  8  4  1  0  0  0  0
  9  8  1  0  0  0  0
 10  9  2  0  0  0  0
 11 10  1  0  0  0  0
 12 11  1  0  0  0  0
 13 12  2  0  0  0  0
 13  8  1  0  0  0  0
 14 12  1  0  0  0  0
 15 11  1  0  0  0  0
 16 15  1  0  0  0  0
 17 16  3  0  0  0  0
 18  1  1  0  0  0  0
 19 18  1  0  0  0  0
 20 19  3  0  0  0  0
  2 21  1  0  0  0  0
  3 22  1  0  0  0  0
  4 23  1  0  0  0  0
  5 24  1  0  0  0  0
  7 25  1  0  0  0  0
  7 26  1  0  0  0  0
  7 27  1  0  0  0  0
  8 28  1  0  0  0  0
  9 29  1  0  0  0  0
 10 30  1  0  0  0  0
 13 31  1  0  0  0  0
 14 32  1  0  0  0  0
 14 33  1  0  0  0  0
 14 34  1  0  0  0  0
 15 35  1  0  0  0  0
 15 36  1  0  0  0  0
 18 37  1  0  0  0  0
 18 38  1  0  0  0  0
M  END
>  <energy>
94.161730382686571

$$$$
N1(C=C[C@@H](C=C1C)[C@H]1C=CN(C(=C1)C)CC#N)CC#N
                    3D

 38 39  0  0  0  0  0  0  0  0999 V2000
    3.2767    0.0331    0.2321 N   0  0  0  0  0  0  0  0  0  0  0  0
    2.7716   -1.0786   -0.4215 C   0  0  0  0  0  0  0  0  0  0  0  0
    1.6239   -1.6837   -0.0999 C   0  0  0  0  0  0  0  0  0  0  0  0
    0.7666   -1.2009    1.0634 C   0  0  0  0  0  0  0  0  0  0  0  0
    1.4834   -0.1004    1.8336 C   0  0  0  0  0  0  0  0  0  0  0  0
    2.5767    0.5351    1.3561 C   0  0  0  0  0  0  0  0  0  0  0  0
    2.9917    1.8399    1.9863 C   0  0  0  0  0  0  0  0  0  0  0  0
   -0.7294   -0.7890    0.6866 C   0  0  0  0  0  0  0  0  0  0  0  0
   -1.0620    0.6848    0.8700 C   0  0  0  0  0  0  0  0  0  0  0  0
   -1.4847    1.4391   -0.1516 C   0  0  0  0  0  0  0  0  0  0  0  0
   -1.6898    0.9631   -1.4419 N   0  0  0  0  0  0  0  0  0  0  0  0
   -1.5337   -0.4264   -1.6787 C   0  0  0  0  0  0  0  0  0  0  0  0
   -1.1397   -1.2634   -0.6939 C   0  0  0  0  0  0  0  0  0  0  0  0
   -1.7758   -1.0052   -3.0515 C   0  0  0  0  0  0  0  0  0  0  0  0
   -1.8878    1.9290   -2.5565 C   0  0  0  0  0  0  0  0  0  0  0  0
   -3.1352    1.7111   -3.3149 C   0  0  0  0  0  0  0  0  0  0  0  0
   -4.0995    1.5354   -3.9478 N   0  0  0  0  0  0  0  0  0  0  0  0
    4.4813    0.7036   -0.3187 C   0  0  0  0  0  0  0  0  0  0  0  0
    4.1110    1.7731   -1.2655 C   0  0  0  0  0  0  0  0  0  0  0  0
    3.8318    2.6134   -2.0247 N   0  0  0  0  0  0  0  0  0  0  0  0
    3.3736   -1.4515   -1.2478 H   0  0  0  0  0  0  0  0  0  0  0  0
    1.3041   -2.5439   -0.6734 H   0  0  0  0  0  0  0  0  0  0  0  0
    0.6909   -2.0644    1.7464 H   0  0  0  0  0  0  0  0  0  0  0  0
    0.9963    0.2412    2.7385 H   0  0  0  0  0  0  0  0  0  0  0  0
    2.2543    2.1865    2.7207 H   0  0  0  0  0  0  0  0  0  0  0  0
    3.0528    2.6262    1.2234 H   0  0  0  0  0  0  0  0  0  0  0  0
    3.9630    1.7579    2.4816 H   0  0  0  0  0  0  0  0  0  0  0  0
   -1.3762   -1.3196    1.4010 H   0  0  0  0  0  0  0  0  0  0  0  0
   -0.9550    1.1249    1.8528 H   0  0  0  0  0  0  0  0  0  0  0  0
   -1.7033    2.4948   -0.0064 H   0  0  0  0  0  0  0  0  0  0  0  0
   -1.0677   -2.3329   -0.8791 H   0  0  0  0  0  0  0  0  0  0  0  0
   -1.2399   -0.4372   -3.8164 H   0  0  0  0  0  0  0  0  0  0  0  0
   -1.4221   -2.0400   -3.1179 H   0  0  0  0  0  0  0  0  0  0  0  0
   -2.8455   -1.0114   -3.2908 H   0  0  0  0  0  0  0  0  0  0  0  0
   -1.0144    1.8752   -3.2178 H   0  0  0  0  0  0  0  0  0  0  0  0
   -1.9018    2.9586   -2.1760 H   0  0  0  0  0  0  0  0  0  0  0  0
    5.1042    1.0830    0.4974 H   0  0  0  0  0  0  0  0  0  0  0  0
    5.1110   -0.0315   -0.8364 H   0  0  0  0  0  0  0  0  0  0  0  0
  2  1  1  0  0  0  0
  3  2  2  0  0  0  0
  4  3  1  0  0  0  0
  5  4  1  0  0  0  0
  6  5  2  0  0  0  0
  6  1  1  0  0  0  0
  7  6  1  0  0  0  0
  8  4  1  0  0  0  0
  9  8  1  0  0  0  0
 10  9  2  0  0  0  0
 11 10  1  0  0  0  0
 12 11  1  0  0  0  0
 13 12  2  0  0  0  0
 13  8  1  0  0  0  0
 14 12  1  0  0  0  0
 15 11  1  0  0  0  0
 16 15  1  0  0  0  0
 17 16  3  0  0  0  0
 18  1  1  0  0  0  0
 19 18  1  0  0  0  0
 20 19  3  0  0  0  0
  2 21  1  0  0  0  0
  3 22  1  0  0  0  0
  4 23  1  0  0  0  0
  5 24  1  0  0  0  0
  7 25  1  0  0  0  0
  7 26  1  0  0  0  0
  7 27  1  0  0  0  0
  8 28  1  0  0  0  0
  9 29  1  0  0  0  0
 10 30  1  0  0  0  0
 13 31  1  0  0  0  0
 14 32  1  0  0  0  0
 14 33  1  0  0  0  0
 14 34  1  0  0  0  0
 15 35  1  0  0  0  0
 15 36  1  0  0  0  0
 18 37  1  0  0  0  0
 18 38  1  0  0  0  0
M  END
>  <energy>
95.749174202360365

$$$$
