N1(C=C[C@@H](C=C1)[C@H]1C=CN(C=C1)CC(=O)N)CC(=O)N
                    3D

 38 39  0  0  0  0  0  0  0  0999 V2000
    3.3690   -0.4946   -0.2963 N   0  0  0  0  0  0  0  0  0  0  0  0
    2.8112    0.1827    0.7825 C   0  0  0  0  0  0  0  0  0  0  0  0
    1.4920    0.3078    0.9767 C   0  0  0  0  0  0  0  0  0  0  0  0
    0.4891   -0.3224    0.0194 C   0  0  0  0  0  0  0  0  0  0  0  0
    1.1803   -0.9609   -1.1781 C   0  0  0  0  0  0  0  0  0  0  0  0
    2.5175   -1.0032   -1.2745 C   0  0  0  0  0  0  0  0  0  0  0  0
   -0.5036   -1.3085    0.7254 C   0  0  0  0  0  0  0  0  0  0  0  0
    0.1573   -2.3724    1.5997 C   0  0  0  0  0  0  0  0  0  0  0  0
   -0.1508   -2.4958    2.9033 C   0  0  0  0  0  0  0  0  0  0  0  0
   -1.0483   -1.6618    3.5700 N   0  0  0  0  0  0  0  0  0  0  0  0
   -1.7329   -0.7072    2.8257 C   0  0  0  0  0  0  0  0  0  0  0  0
   -1.5421   -0.5142    1.5095 C   0  0  0  0  0  0  0  0  0  0  0  0
   -1.3244   -1.8403    5.0240 C   0  0  0  0  0  0  0  0  0  0  0  0
   -0.2693   -1.1934    5.9295 C   0  0  0  0  0  0  0  0  0  0  0  0
   -0.3612   -1.1622    7.1550 O   0  0  0  0  0  0  0  0  0  0  0  0
    0.8196   -0.6551    5.3071 N   0  0  0  0  0  0  0  0  0  0  0  0
    4.8402   -0.6251   -0.4163 C   0  0  0  0  0  0  0  0  0  0  0  0
    5.3796   -1.7737    0.4451 C   0  0  0  0  0  0  0  0  0  0  0  0
    6.4831   -1.7337    0.9862 O   0  0  0  0  0  0  0  0  0  0  0  0
    4.5880   -2.8939    0.5237 N   0  0  0  0  0  0  0  0  0  0  0  0
    3.5297    0.6367    1.4650 H   0  0  0  0  0  0  0  0  0  0  0  0
    1.1074    0.8790    1.8164 H   0  0  0  0  0  0  0  0  0  0  0  0
   -0.1030    0.5093   -0.3949 H   0  0  0  0  0  0  0  0  0  0  0  0
    0.5643   -1.3497   -1.9832 H   0  0  0  0  0  0  0  0  0  0  0  0
    3.0074   -1.4377   -2.1440 H   0  0  0  0  0  0  0  0  0  0  0  0
   -1.0496   -1.8551   -0.0598 H   0  0  0  0  0  0  0  0  0  0  0  0
    0.8716   -3.0481    1.1471 H   0  0  0  0  0  0  0  0  0  0  0  0
    0.3057   -3.2623    3.5249 H   0  0  0  0  0  0  0  0  0  0  0  0
   -2.4592   -0.1133    3.3757 H   0  0  0  0  0  0  0  0  0  0  0  0
   -2.1234    0.2312    0.9757 H   0  0  0  0  0  0  0  0  0  0  0  0
   -2.2887   -1.3893    5.2865 H   0  0  0  0  0  0  0  0  0  0  0  0
   -1.3708   -2.9073    5.2701 H   0  0  0  0  0  0  0  0  0  0  0  0
    1.5343   -0.2042    5.8566 H   0  0  0  0  0  0  0  0  0  0  0  0
    0.8447   -0.6034    4.2943 H   0  0  0  0  0  0  0  0  0  0  0  0
    5.3233    0.3053   -0.1028 H   0  0  0  0  0  0  0  0  0  0  0  0
    5.1368   -0.8119   -1.4553 H   0  0  0  0  0  0  0  0  0  0  0  0
    3.5845   -2.7813    0.3943 H   0  0  0  0  0  0  0  0  0  0  0  0
    4.8834   -3.6063    1.1746 H   0  0  0  0  0  0  0  0  0  0  0  0
  2  1  1  0  0  0  0
  3  2  2  0  0  0  0
  4  3  1  0  0  0  0
  5  4  1  0  0  0  0
  6  5  2  0  0  0  0
  6  1  1  0  0  0  0
  7  4  1  0  0  0  0
  8  7  1  0  0  0  0
  9  8  2  0  0  0  0
 10  9  1  0  0  0  0
 11 10  1  0  0  0  0
 12 11  2  0  0  0  0
 12  7  1  0  0  0  0
 13 10  1  0  0  0  0
 14 13  1  0  0  0  0
 15 14  2  0  0  0  0
 16 14  1  0  0  0  0
 17  1  1  0  0  0  0
 18 17  1  0  0  0  0
 19 18  2  0  0  0  0
 20 18  1  0  0  0  0
  2 21  1  0  0  0  0
  3 22  1  0  0  0  0
  4 23  1  0  0  0  0
  5 24  1  0  0  0  0
  6 25  1  0  0  0  0
  7 26  1  0  0  0  0
  8 27  1  0  0  0  0
  9 28  1  0  0  0  0
 11 29  1  0  0  0  0
 12 30  1  0  0  0  0
 13 31  1  0  0  0  0
 13 32  1  0  0  0  0
 16 33  1  0  0  0  0
 16 34  1  0  0  0  0
 17 35  1  0  0  0  0
 17 36  1  0  0  0  0
 20 37  1  0  0  0  0
 20 38  1  0  0  0  0
M  END
>  <energy>
54.156380951255436

$$$$
N1(C=C[C@@H](C=C1)[C@H]1C=CN(C=C1)CC(=O)N)CC(=O)N
                    3D

 38 39  0  0  0  0  0  0  0  0999 V2000
   -0.0873   -1.0113    3.8577 N   0  0  0  0  0  0  0  0  0  0  0  0
    0.5979   -2.0056    3.1730 C   0  0  0  0  0  0  0  0  0  0  0  0
    0.5009   -2.1845    1.8464 C   0  0  0  0  0  0  0  0  0  0  0  0
   -0.3686   -1.2768    0.9830 C   0  0  0  0  0  0  0  0  0  0  0  0
   -1.1799   -0.3115    1.8357 C   0  0  0  0  0  0  0  0  0  0  0  0
   -0.9901   -0.2194    3.1600 C   0  0  0  0  0  0  0  0  0  0  0  0
    0.4266   -0.4823   -0.1065 C   0  0  0  0  0  0  0  0  0  0  0  0
    1.4676    0.4545    0.4950 C   0  0  0  0  0  0  0  0  0  0  0  0
    2.7680    0.3299    0.2086 C   0  0  0  0  0  0  0  0  0  0  0  0
    3.2686   -0.6149   -0.6781 N   0  0  0  0  0  0  0  0  0  0  0  0
    2.3692   -1.4230   -1.3710 C   0  0  0  0  0  0  0  0  0  0  0  0
    1.0457   -1.4060   -1.1489 C   0  0  0  0  0  0  0  0  0  0  0  0
    4.7352   -0.7623   -0.8629 C   0  0  0  0  0  0  0  0  0  0  0  0
    5.3670   -1.6198    0.2418 C   0  0  0  0  0  0  0  0  0  0  0  0
    6.5555   -1.5466    0.5513 O   0  0  0  0  0  0  0  0  0  0  0  0
    4.5454   -2.5247    0.8596 N   0  0  0  0  0  0  0  0  0  0  0  0
    0.0481   -0.8548    5.3158 C   0  0  0  0  0  0  0  0  0  0  0  0
   -1.0342   -1.6479    6.0427 C   0  0  0  0  0  0  0  0  0  0  0  0
   -2.1478   -1.1935    6.3101 O   0  0  0  0  0  0  0  0  0  0  0  0
   -0.6935   -2.9276    6.4040 N   0  0  0  0  0  0  0  0  0  0  0  0
    1.2239   -2.6478    3.7884 H   0  0  0  0  0  0  0  0  0  0  0  0
    1.0279   -3.0015    1.3657 H   0  0  0  0  0  0  0  0  0  0  0  0
   -1.0858   -1.9403    0.4807 H   0  0  0  0  0  0  0  0  0  0  0  0
   -1.9006    0.3320    1.3506 H   0  0  0  0  0  0  0  0  0  0  0  0
   -1.5400    0.4962    3.7629 H   0  0  0  0  0  0  0  0  0  0  0  0
   -0.2941    0.1502   -0.6545 H   0  0  0  0  0  0  0  0  0  0  0  0
    1.1342    1.2208    1.1919 H   0  0  0  0  0  0  0  0  0  0  0  0
    3.5133    0.9786    0.6703 H   0  0  0  0  0  0  0  0  0  0  0  0
    2.8135   -2.0863   -2.1136 H   0  0  0  0  0  0  0  0  0  0  0  0
    0.3855   -2.0377   -1.7382 H   0  0  0  0  0  0  0  0  0  0  0  0
    4.9697   -1.2037   -1.8392 H   0  0  0  0  0  0  0  0  0  0  0  0
    5.2158    0.2267   -0.8242 H   0  0  0  0  0  0  0  0  0  0  0  0
    4.9097   -2.9677    1.6897 H   0  0  0  0  0  0  0  0  0  0  0  0
    3.5491   -2.3236    0.8459 H   0  0  0  0  0  0  0  0  0  0  0  0
   -0.0458    0.2011    5.6027 H   0  0  0  0  0  0  0  0  0  0  0  0
    1.0422   -1.1719    5.6636 H   0  0  0  0  0  0  0  0  0  0  0  0
   -1.4579   -3.4870    6.7567 H   0  0  0  0  0  0  0  0  0  0  0  0
    0.0943   -3.4063    5.9831 H   0  0  0  0  0  0  0  0  0  0  0  0
  2  1  1  0  0  0  0
  3  2  2  0  0  0  0
  4  3  1  0  0  0  0
  5  4  1  0  0  0  0
  6  5  2  0  0  0  0
  6  1  1  0  0  0  0
  7  4  1  0  0  0  0
  8  7  1  0  0  0  0
  9  8  2  0  0  0  0
 10  9  1  0  0  0  0
 11 10  1  0  0  0  0
 12 11  2  0  0  0  0
 12  7  1  0  0  0  0
 13 10  1  0  0  0  0
 14 13  1  0  0  0  0
 15 14  2  0  0  0  0
 16 14  1  0  0  0  0
 17  1  1  0  0  0  0
 18 17  1  0  0  0  0
 19 18  2  0  0  0  0
 20 18  1  0  0  0  0
  2 21  1  0  0  0  0
  3 22  1  0  0  0  0
  4 23  1  0  0  0  0
  5 24  1  0  0  0  0
  6 25  1  0  0  0  0
  7 26  1  0  0  0  0
  8 27  1  0  0  0  0
  9 28  1  0  0  0  0
 11 29  1  0  0  0  0
 12 30  1  0  0  0  0
 13 31  1  0  0  0  0
 13 32  1  0  0  0  0
 16 33  1  0  0  0  0
 16 34  1  0  0  0  0
 17 35  1  0  0  0  0
 17 36  1  0  0  0  0
 20 37  1  0  0  0  0
 20 38  1  0  0  0  0
M  END
>  <energy>
57.987234527920478

$$$$
N1(C=C[C@@H](C=C1)[C@H]1C=CN(C=C1)CC(=O)N)CC(=O)N
                    3D

 38 39  0  0  0  0  0  0  0  0999 V2000
    3.3420   -0.4941   -0.2028 N   0  0  0  0  0  0  0  0  0  0  0  0
    2.7581    0.2130    0.8415 C   0  0  0  0  0  0  0  0  0  0  0  0
    1.4319    0.3384    0.9998 C   0  0  0  0  0  0  0  0  0  0  0  0
    0.4541   -0.3191    0.0347 C   0  0  0  0  0  0  0  0  0  0  0  0
    1.1748   -1.0733   -1.0741 C   0  0  0  0  0  0  0  0  0  0  0  0
    2.5142   -1.1244   -1.1244 C   0  0  0  0  0  0  0  0  0  0  0  0
   -0.6003   -1.2252    0.7504 C   0  0  0  0  0  0  0  0  0  0  0  0
    0.0215   -2.3816    1.5198 C   0  0  0  0  0  0  0  0  0  0  0  0
   -0.2285   -2.5696    2.8224 C   0  0  0  0  0  0  0  0  0  0  0  0
   -1.0558   -1.7394    3.5723 N   0  0  0  0  0  0  0  0  0  0  0  0
   -1.6914   -0.6787    2.9337 C   0  0  0  0  0  0  0  0  0  0  0  0
   -1.5272   -0.3958    1.6329 C   0  0  0  0  0  0  0  0  0  0  0  0
   -1.2292   -1.9613    5.0287 C   0  0  0  0  0  0  0  0  0  0  0  0
   -0.2536   -1.1234    5.8645 C   0  0  0  0  0  0  0  0  0  0  0  0
   -0.3818   -0.9653    7.0768 O   0  0  0  0  0  0  0  0  0  0  0  0
    0.8121   -0.5795    5.2065 N   0  0  0  0  0  0  0  0  0  0  0  0
    4.8075   -0.5964   -0.3175 C   0  0  0  0  0  0  0  0  0  0  0  0
    5.3757   -1.8492    0.3590 C   0  0  0  0  0  0  0  0  0  0  0  0
    4.7620   -2.6300    1.0793 O   0  0  0  0  0  0  0  0  0  0  0  0
    6.7080   -2.0731    0.1142 N   0  0  0  0  0  0  0  0  0  0  0  0
    3.4523    0.6720    1.5386 H   0  0  0  0  0  0  0  0  0  0  0  0
    1.0334    0.9114    1.8292 H   0  0  0  0  0  0  0  0  0  0  0  0
   -0.0894    0.4985   -0.4623 H   0  0  0  0  0  0  0  0  0  0  0  0
    0.5810   -1.5789   -1.8279 H   0  0  0  0  0  0  0  0  0  0  0  0
    3.0282   -1.6750   -1.9075 H   0  0  0  0  0  0  0  0  0  0  0  0
   -1.2388   -1.6741   -0.0237 H   0  0  0  0  0  0  0  0  0  0  0  0
    0.6896   -3.0547    0.9903 H   0  0  0  0  0  0  0  0  0  0  0  0
    0.2304   -3.3901    3.3681 H   0  0  0  0  0  0  0  0  0  0  0  0
   -2.3414   -0.0795    3.5659 H   0  0  0  0  0  0  0  0  0  0  0  0
   -2.0526    0.4401    1.1831 H   0  0  0  0  0  0  0  0  0  0  0  0
   -2.2510   -1.6993    5.3301 H   0  0  0  0  0  0  0  0  0  0  0  0
   -1.0676   -3.0155    5.2815 H   0  0  0  0  0  0  0  0  0  0  0  0
    1.4523    0.0173    5.7078 H   0  0  0  0  0  0  0  0  0  0  0  0
    0.8496   -0.6282    4.1925 H   0  0  0  0  0  0  0  0  0  0  0  0
    5.2888    0.2792    0.1344 H   0  0  0  0  0  0  0  0  0  0  0  0
    5.0968   -0.6130   -1.3755 H   0  0  0  0  0  0  0  0  0  0  0  0
    7.3193   -1.3721   -0.2808 H   0  0  0  0  0  0  0  0  0  0  0  0
    7.1269   -2.8499    0.6103 H   0  0  0  0  0  0  0  0  0  0  0  0
  2  1  1  0  0  0  0
  3  2  2  0  0  0  0
  4  3  1  0  0  0  0
  5  4  1  0  0  0  0
  6  5  2  0  0  0  0
  6  1  1  0  0  0  0
  7  4  1  0  0  0  0
  8  7  1  0  0  0  0
  9  8  2  0  0  0  0
 10  9  1  0  0  0  0
 11 10  1  0  0  0  0
 12 11  2  0  0  0  0
 12  7  1  0  0  0  0
 13 10  1  0  0  0  0
 14 13  1  0  0  0  0
 15 14  2  0  0  0  0
 16 14  1  0  0  0  0
 17  1  1  0  0  0  0
 18 17  1  0  0  0  0
 19 18  2  0  0  0  0
 20 18  1  0  0  0  0
  2 21  1  0  0  0  0
  3 22  1  0  0  0  0
  4 23  1  0  0  0  0
  5 24  1  0  0  0  0
  6 25  1  0  0  0  0
  7 26  1  0  0  0  0
  8 27  1  0  0  0  0
  9 28  1  0  0  0  0
 11 29  1  0  0  0  0
 12 30  1  0  0  0  0
 13 31  1  0  0  0  0
 13 32  1  0  0  0  0
 16 33  1  0  0  0  0
 16 34  1  0  0  0  0
 17 35  1  0  0  0  0
 17 36  1  0  0  0  0
 20 37  1  0  0  0  0
 20 38  1  0  0  0  0
M  END
>  <energy>
60.427373250763253

$$$$
N1(C=C[C@@H](C=C1)[C@H]1C=CN(C=C1)CC(=O)N)CC(=O)N
                    3D

 38 39  0  0  0  0  0  0  0  0999 V2000
   -1.4614   -1.4962    3.8369 N   0  0  0  0  0  0  0  0  0  0  0  0
   -1.6347   -2.4434    2.8308 C   0  0  0  0  0  0  0  0  0  0  0  0
   -1.0374   -2.3780    1.6310 C   0  0  0  0  0  0  0  0  0  0  0  0
   -0.0783   -1.2476    1.2739 C   0  0  0  0  0  0  0  0  0  0  0  0
   -0.0548   -0.1922    2.3693 C   0  0  0  0  0  0  0  0  0  0  0  0
   -0.7346   -0.3502    3.5162 C   0  0  0  0  0  0  0  0  0  0  0  0
    1.3189   -1.8372    0.8471 C   0  0  0  0  0  0  0  0  0  0  0  0
    1.5647   -1.5914   -0.6399 C   0  0  0  0  0  0  0  0  0  0  0  0
    2.6781   -0.9849   -1.0777 C   0  0  0  0  0  0  0  0  0  0  0  0
    3.7109   -0.5890   -0.2373 N   0  0  0  0  0  0  0  0  0  0  0  0
    3.5783   -0.8039    1.1299 C   0  0  0  0  0  0  0  0  0  0  0  0
    2.5039   -1.3801    1.6858 C   0  0  0  0  0  0  0  0  0  0  0  0
    4.9509   -0.0015   -0.7937 C   0  0  0  0  0  0  0  0  0  0  0  0
    5.9648   -1.0488   -1.2441 C   0  0  0  0  0  0  0  0  0  0  0  0
    7.1471   -0.7642   -1.4288 O   0  0  0  0  0  0  0  0  0  0  0  0
    5.5284   -2.3156   -1.4980 N   0  0  0  0  0  0  0  0  0  0  0  0
   -2.2982   -1.5982    5.0626 C   0  0  0  0  0  0  0  0  0  0  0  0
   -1.7054   -0.8927    6.2817 C   0  0  0  0  0  0  0  0  0  0  0  0
   -2.3610   -0.1712    7.0286 O   0  0  0  0  0  0  0  0  0  0  0  0
   -0.3862   -1.1415    6.5433 N   0  0  0  0  0  0  0  0  0  0  0  0
   -2.3280   -3.2470    3.0668 H   0  0  0  0  0  0  0  0  0  0  0  0
   -1.2493   -3.1301    0.8765 H   0  0  0  0  0  0  0  0  0  0  0  0
   -0.5294   -0.7484    0.4057 H   0  0  0  0  0  0  0  0  0  0  0  0
    0.4993    0.7240    2.1868 H   0  0  0  0  0  0  0  0  0  0  0  0
   -0.7400    0.4398    4.2637 H   0  0  0  0  0  0  0  0  0  0  0  0
    1.2903   -2.9315    0.9600 H   0  0  0  0  0  0  0  0  0  0  0  0
    0.8181   -1.9306   -1.3510 H   0  0  0  0  0  0  0  0  0  0  0  0
    2.8462   -0.8026   -2.1366 H   0  0  0  0  0  0  0  0  0  0  0  0
    4.4184   -0.4772    1.7384 H   0  0  0  0  0  0  0  0  0  0  0  0
    2.4640   -1.5489    2.7581 H   0  0  0  0  0  0  0  0  0  0  0  0
    4.7235    0.6318   -1.6623 H   0  0  0  0  0  0  0  0  0  0  0  0
    5.4430    0.6296   -0.0389 H   0  0  0  0  0  0  0  0  0  0  0  0
    6.2397   -3.0011   -1.7296 H   0  0  0  0  0  0  0  0  0  0  0  0
    4.6869   -2.6312   -1.0263 H   0  0  0  0  0  0  0  0  0  0  0  0
   -2.4330   -2.6514    5.3451 H   0  0  0  0  0  0  0  0  0  0  0  0
   -3.2878   -1.1751    4.8594 H   0  0  0  0  0  0  0  0  0  0  0  0
    0.2035   -1.3915    5.7577 H   0  0  0  0  0  0  0  0  0  0  0  0
    0.0271   -0.5793    7.2730 H   0  0  0  0  0  0  0  0  0  0  0  0
  2  1  1  0  0  0  0
  3  2  2  0  0  0  0
  4  3  1  0  0  0  0
  5  4  1  0  0  0  0
  6  5  2  0  0  0  0
  6  1  1  0  0  0  0
  7  4  1  0  0  0  0
  8  7  1  0  0  0  0
  9  8  2  0  0  0  0
 10  9  1  0  0  0  0
 11 10  1  0  0  0  0
 12 11  2  0  0  0  0
 12  7  1  0  0  0  0
 13 10  1  0  0  0  0
 14 13  1  0  0  0  0
 15 14  2  0  0  0  0
 16 14  1  0  0  0  0
 17  1  1  0  0  0  0
 18 17  1  0  0  0  0
 19 18  2  0  0  0  0
 20 18  1  0  0  0  0
  2 21  1  0  0  0  0
  3 22  1  0  0  0  0
  4 23  1  0  0  0  0
  5 24  1  0  0  0  0
  6 25  1  0  0  0  0
  7 26  1  0  0  0  0
  8 27  1  0  0  0  0
  9 28  1  0  0  0  0
 11 29  1  0  0  0  0
 12 30  1  0  0  0  0
 13 31  1  0  0  0  0
 13 32  1  0  0  0  0
 16 33  1  0  0  0  0
 16 34  1  0  0  0  0
 17 35  1  0  0  0  0
 17 36  1  0  0  0  0
 20 37  1  0  0  0  0
 20 38  1  0  0  0  0
M  END
>  <energy>
60.940996044999963

$$$$
N1(C=C[C@@H](C=C1)[C@H]1C=CN(C=C1)CC(=O)N)CC(=O)N
                    3D

 38 39  0  0  0  0  0  0  0  0999 V2000
    3.3331   -0.8802   -0.6597 N   0  0  0  0  0  0  0  0  0  0  0  0
    2.8746    0.4325   -0.6697 C   0  0  0  0  0  0  0  0  0  0  0  0
    1.6169    0.7829   -0.3571 C   0  0  0  0  0  0  0  0  0  0  0  0
    0.5826   -0.2580    0.0481 C   0  0  0  0  0  0  0  0  0  0  0  0
    1.1485   -1.6695   -0.0157 C   0  0  0  0  0  0  0  0  0  0  0  0
    2.4298   -1.8922   -0.3463 C   0  0  0  0  0  0  0  0  0  0  0  0
   -0.0578    0.0984    1.4324 C   0  0  0  0  0  0  0  0  0  0  0  0
   -1.3638   -0.6610    1.6457 C   0  0  0  0  0  0  0  0  0  0  0  0
   -1.5438   -1.4575    2.7110 C   0  0  0  0  0  0  0  0  0  0  0  0
   -0.5881   -1.6290    3.7077 N   0  0  0  0  0  0  0  0  0  0  0  0
    0.6032   -0.9153    3.6153 C   0  0  0  0  0  0  0  0  0  0  0  0
    0.8997   -0.0913    2.5990 C   0  0  0  0  0  0  0  0  0  0  0  0
   -0.8213   -2.5363    4.8595 C   0  0  0  0  0  0  0  0  0  0  0  0
   -1.1655   -1.7478    6.1233 C   0  0  0  0  0  0  0  0  0  0  0  0
   -0.8532   -2.1144    7.2525 O   0  0  0  0  0  0  0  0  0  0  0  0
   -1.9194   -0.6192    5.9347 N   0  0  0  0  0  0  0  0  0  0  0  0
    4.7012   -1.1988   -1.1134 C   0  0  0  0  0  0  0  0  0  0  0  0
    5.5040   -2.0244   -0.1052 C   0  0  0  0  0  0  0  0  0  0  0  0
    5.4810   -1.8830    1.1124 O   0  0  0  0  0  0  0  0  0  0  0  0
    6.3324   -2.9636   -0.6571 N   0  0  0  0  0  0  0  0  0  0  0  0
    3.6078    1.1810   -0.9538 H   0  0  0  0  0  0  0  0  0  0  0  0
    1.3162    1.8225   -0.3997 H   0  0  0  0  0  0  0  0  0  0  0  0
   -0.2078   -0.2075   -0.7181 H   0  0  0  0  0  0  0  0  0  0  0  0
    0.4988   -2.5057    0.2251 H   0  0  0  0  0  0  0  0  0  0  0  0
    2.8286   -2.9020   -0.3754 H   0  0  0  0  0  0  0  0  0  0  0  0
   -0.3286    1.1642    1.4219 H   0  0  0  0  0  0  0  0  0  0  0  0
   -2.1497   -0.5475    0.9104 H   0  0  0  0  0  0  0  0  0  0  0  0
   -2.4689   -2.0114    2.8535 H   0  0  0  0  0  0  0  0  0  0  0  0
    1.3031   -1.0688    4.4342 H   0  0  0  0  0  0  0  0  0  0  0  0
    1.8496    0.4312    2.5786 H   0  0  0  0  0  0  0  0  0  0  0  0
   -1.6397   -3.2398    4.6596 H   0  0  0  0  0  0  0  0  0  0  0  0
    0.0872   -3.1240    5.0527 H   0  0  0  0  0  0  0  0  0  0  0  0
   -2.0012   -0.0165    6.7374 H   0  0  0  0  0  0  0  0  0  0  0  0
   -1.8434   -0.1699    5.0259 H   0  0  0  0  0  0  0  0  0  0  0  0
    5.2884   -0.2890   -1.2865 H   0  0  0  0  0  0  0  0  0  0  0  0
    4.6408   -1.7332   -2.0704 H   0  0  0  0  0  0  0  0  0  0  0  0
    6.9298   -3.4696   -0.0124 H   0  0  0  0  0  0  0  0  0  0  0  0
    6.5037   -3.0466   -1.6475 H   0  0  0  0  0  0  0  0  0  0  0  0
  2  1  1  0  0  0  0
  3  2  2  0  0  0  0
  4  3  1  0  0  0  0
  5  4  1  0  0  0  0
  6  5  2  0  0  0  0
  6  1  1  0  0  0  0
  7  4  1  0  0  0  0
  8  7  1  0  0  0  0
  9  8  2  0  0  0  0
 10  9  1  0  0  0  0
 11 10  1  0  0  0  0
 12 11  2  0  0  0  0
 12  7  1  0  0  0  0
 13 10  1  0  0  0  0
 14 13  1  0  0  0  0
 15 14  2  0  0  0  0
 16 14  1  0  0  0  0
 17  1  1  0  0  0  0
 18 17  1  0  0  0  0
 19 18  2  0  0  0  0
 20 18  1  0  0  0  0
  2 21  1  0  0  0  0
  3 22  1  0  0  0  0
  4 23  1  0  0  0  0
  5 24  1  0  0  0  0
  6 25  1  0  0  0  0
  7 26  1  0  0  0  0
  8 27  1  0  0  0  0
  9 28  1  0  0  0  0
 11 29  1  0  0  0  0
 12 30  1  0  0  0  0
 13 31  1  0  0  0  0
 13 32  1  0  0  0  0
 16 33  1  0  0  0  0
 16 34  1  0  0  0  0
 17 35  1  0  0  0  0
 17 36  1  0  0  0  0
 20 37  1  0  0  0  0
 20 38  1  0  0  0  0
M  END
>  <energy>
61.538158656699792

$$$$
N1(C=C[C@@H](C=C1)[C@H]1C=CN(C=C1)CC(=O)N)CC(=O)N
                    3D

 38 39  0  0  0  0  0  0  0  0999 V2000
    3.4010   -0.9374    0.6472 N   0  0  0  0  0  0  0  0  0  0  0  0
    2.6799   -0.1057    1.4986 C   0  0  0  0  0  0  0  0  0  0  0  0
    1.3901    0.2118    1.3193 C   0  0  0  0  0  0  0  0  0  0  0  0
    0.5784   -0.3750    0.1740 C   0  0  0  0  0  0  0  0  0  0  0  0
    1.4532   -1.2091   -0.7517 C   0  0  0  0  0  0  0  0  0  0  0  0
    2.7437   -1.4501   -0.4679 C   0  0  0  0  0  0  0  0  0  0  0  0
   -0.6678   -1.1861    0.6723 C   0  0  0  0  0  0  0  0  0  0  0  0
   -0.2785   -2.4038    1.5010 C   0  0  0  0  0  0  0  0  0  0  0  0
   -0.6081   -2.5016    2.7972 C   0  0  0  0  0  0  0  0  0  0  0  0
   -1.3484   -1.5315    3.4706 N   0  0  0  0  0  0  0  0  0  0  0  0
   -1.8974   -0.4860    2.7329 C   0  0  0  0  0  0  0  0  0  0  0  0
   -1.6341   -0.2848    1.4326 C   0  0  0  0  0  0  0  0  0  0  0  0
   -1.5135   -1.5971    4.9458 C   0  0  0  0  0  0  0  0  0  0  0  0
   -0.2761   -1.0772    5.6940 C   0  0  0  0  0  0  0  0  0  0  0  0
   -0.0802   -1.2984    6.8877 O   0  0  0  0  0  0  0  0  0  0  0  0
    0.6026   -0.3091    4.9801 N   0  0  0  0  0  0  0  0  0  0  0  0
    4.7872   -1.3070    1.0169 C   0  0  0  0  0  0  0  0  0  0  0  0
    5.6890   -1.6331   -0.1708 C   0  0  0  0  0  0  0  0  0  0  0  0
    5.9697   -0.8441   -1.0697 O   0  0  0  0  0  0  0  0  0  0  0  0
    6.2035   -2.9027   -0.1925 N   0  0  0  0  0  0  0  0  0  0  0  0
    3.2417    0.3008    2.3362 H   0  0  0  0  0  0  0  0  0  0  0  0
    0.8980    0.8940    2.0025 H   0  0  0  0  0  0  0  0  0  0  0  0
    0.2186    0.4781   -0.4195 H   0  0  0  0  0  0  0  0  0  0  0  0
    1.0063   -1.6130   -1.6548 H   0  0  0  0  0  0  0  0  0  0  0  0
    3.3442   -2.0531   -1.1401 H   0  0  0  0  0  0  0  0  0  0  0  0
   -1.2150   -1.5581   -0.2061 H   0  0  0  0  0  0  0  0  0  0  0  0
    0.3076   -3.1842    1.0278 H   0  0  0  0  0  0  0  0  0  0  0  0
   -0.2955   -3.3519    3.3987 H   0  0  0  0  0  0  0  0  0  0  0  0
   -2.5587    0.1783    3.2809 H   0  0  0  0  0  0  0  0  0  0  0  0
   -2.0882    0.5440    0.8994 H   0  0  0  0  0  0  0  0  0  0  0  0
   -2.3770   -1.0039    5.2723 H   0  0  0  0  0  0  0  0  0  0  0  0
   -1.6829   -2.6349    5.2549 H   0  0  0  0  0  0  0  0  0  0  0  0
    1.4859   -0.0795    5.4109 H   0  0  0  0  0  0  0  0  0  0  0  0
    0.5636   -0.3831    3.9680 H   0  0  0  0  0  0  0  0  0  0  0  0
    4.7503   -2.1636    1.7002 H   0  0  0  0  0  0  0  0  0  0  0  0
    5.2729   -0.4871    1.5602 H   0  0  0  0  0  0  0  0  0  0  0  0
    5.8210   -3.6431    0.3795 H   0  0  0  0  0  0  0  0  0  0  0  0
    6.7034   -3.1676   -1.0310 H   0  0  0  0  0  0  0  0  0  0  0  0
  2  1  1  0  0  0  0
  3  2  2  0  0  0  0
  4  3  1  0  0  0  0
  5  4  1  0  0  0  0
  6  5  2  0  0  0  0
  6  1  1  0  0  0  0
  7  4  1  0  0  0  0
  8  7  1  0  0  0  0
  9  8  2  0  0  0  0
 10  9  1  0  0  0  0
 11 10  1  0  0  0  0
 12 11  2  0  0  0  0
 12  7  1  0  0  0  0
 13 10  1  0  0  0  0
 14 13  1  0  0  0  0
 15 14  2  0  0  0  0
 16 14  1  0  0  0  0
 17  1  1  0  0  0  0
 18 17  1  0  0  0  0
 19 18  2  0  0  0  0
 20 18  1  0  0  0  0
  2 21  1  0  0  0  0
  3 22  1  0  0  0  0
  4 23  1  0  0  0  0
  5 24  1  0  0  0  0
  6 25  1  0  0  0  0
  7 26  1  0  0  0  0
  8 27  1  0  0  0  0
  9 28  1  0  0  0  0
 11 29  1  0  0  0  0
 12 30  1  0  0  0  0
 13 31  1  0  0  0  0
 13 32  1  0  0  0  0
 16 33  1  0  0  0  0
 16 34  1  0  0  0  0
 17 35  1  0  0  0  0
 17 36  1  0  0  0  0
 20 37  1  0  0  0  0
 20 38  1  0  0  0  0
M  END
>  <energy>
61.997261409980837

$$$$
N1(C=C[C@@H](C=C1)[C@H]1C=CN(C=C1)CC(=O)N)CC(=O)N
                    3D

 38 39  0  0  0  0  0  0  0  0999 V2000
    4.0619   -0.7372    0.1053 N   0  0  0  0  0  0  0  0  0  0  0  0
    3.8227   -1.9616    0.7244 C   0  0  0  0  0  0  0  0  0  0  0  0
    2.7594   -2.2021    1.5072 C   0  0  0  0  0  0  0  0  0  0  0  0
    1.7090   -1.1341    1.7823 C   0  0  0  0  0  0  0  0  0  0  0  0
    2.0396    0.1574    1.0388 C   0  0  0  0  0  0  0  0  0  0  0  0
    3.1366    0.2817    0.2801 C   0  0  0  0  0  0  0  0  0  0  0  0
    0.2513   -1.6475    1.5180 C   0  0  0  0  0  0  0  0  0  0  0  0
   -0.0933   -2.7963    2.4648 C   0  0  0  0  0  0  0  0  0  0  0  0
   -1.0075   -2.6553    3.4357 C   0  0  0  0  0  0  0  0  0  0  0  0
   -1.7369   -1.4894    3.6355 N   0  0  0  0  0  0  0  0  0  0  0  0
   -1.6419   -0.4812    2.6912 C   0  0  0  0  0  0  0  0  0  0  0  0
   -0.7741   -0.5173    1.6698 C   0  0  0  0  0  0  0  0  0  0  0  0
   -2.5594   -1.3142    4.8513 C   0  0  0  0  0  0  0  0  0  0  0  0
   -1.7000   -0.9375    6.0649 C   0  0  0  0  0  0  0  0  0  0  0  0
   -2.0927   -1.0330    7.2265 O   0  0  0  0  0  0  0  0  0  0  0  0
   -0.4557   -0.4285    5.7937 N   0  0  0  0  0  0  0  0  0  0  0  0
    5.3490   -0.4928   -0.5830 C   0  0  0  0  0  0  0  0  0  0  0  0
    5.3785   -1.1571   -1.9510 C   0  0  0  0  0  0  0  0  0  0  0  0
    5.7315   -2.3189   -2.1333 O   0  0  0  0  0  0  0  0  0  0  0  0
    5.0162   -0.3632   -3.0048 N   0  0  0  0  0  0  0  0  0  0  0  0
    4.5817   -2.7222    0.5457 H   0  0  0  0  0  0  0  0  0  0  0  0
    2.6725   -3.1700    1.9834 H   0  0  0  0  0  0  0  0  0  0  0  0
    1.7837   -0.8945    2.8553 H   0  0  0  0  0  0  0  0  0  0  0  0
    1.3956    1.0156    1.1695 H   0  0  0  0  0  0  0  0  0  0  0  0
    3.3696    1.2143   -0.2203 H   0  0  0  0  0  0  0  0  0  0  0  0
    0.1601   -2.0284    0.4915 H   0  0  0  0  0  0  0  0  0  0  0  0
    0.4363   -3.7362    2.3598 H   0  0  0  0  0  0  0  0  0  0  0  0
   -1.2217   -3.4627    4.1327 H   0  0  0  0  0  0  0  0  0  0  0  0
   -2.3227    0.3518    2.8208 H   0  0  0  0  0  0  0  0  0  0  0  0
   -0.7729    0.2836    0.9380 H   0  0  0  0  0  0  0  0  0  0  0  0
   -3.3139   -0.5338    4.7181 H   0  0  0  0  0  0  0  0  0  0  0  0
   -3.0842   -2.2437    5.0878 H   0  0  0  0  0  0  0  0  0  0  0  0
   -0.0794   -0.5858    4.8634 H   0  0  0  0  0  0  0  0  0  0  0  0
    0.1845   -0.3173    6.5715 H   0  0  0  0  0  0  0  0  0  0  0  0
    6.1848   -0.8769    0.0148 H   0  0  0  0  0  0  0  0  0  0  0  0
    5.5297    0.5819   -0.6990 H   0  0  0  0  0  0  0  0  0  0  0  0
    4.5000    0.4965   -2.8744 H   0  0  0  0  0  0  0  0  0  0  0  0
    5.0199   -0.7785   -3.9288 H   0  0  0  0  0  0  0  0  0  0  0  0
  2  1  1  0  0  0  0
  3  2  2  0  0  0  0
  4  3  1  0  0  0  0
  5  4  1  0  0  0  0
  6  5  2  0  0  0  0
  6  1  1  0  0  0  0
  7  4  1  0  0  0  0
  8  7  1  0  0  0  0
  9  8  2  0  0  0  0
 10  9  1  0  0  0  0
 11 10  1  0  0  0  0
 12 11  2  0  0  0  0
 12  7  1  0  0  0  0
 13 10  1  0  0  0  0
 14 13  1  0  0  0  0
 15 14  2  0  0  0  0
 16 14  1  0  0  0  0
 17  1  1  0  0  0  0
 18 17  1  0  0  0  0
 19 18  2  0  0  0  0
 20 18  1  0  0  0  0
  2 21  1  0  0  0  0
  3 22  1  0  0  0  0
  4 23  1  0  0  0  0
  5 24  1  0  0  0  0
  6 25  1  0  0  0  0
  7 26  1  0  0  0  0
  8 27  1  0  0  0  0
  9 28  1  0  0  0  0
 11 29  1  0  0  0  0
 12 30  1  0  0  0  0
 13 31  1  0  0  0  0
 13 32  1  0  0  0  0
 16 33  1  0  0  0  0
 16 34  1  0  0  0  0
 17 35  1  0  0  0  0
 17 36  1  0  0  0  0
 20 37  1  0  0  0  0
 20 38  1  0  0  0  0
M  END
>  <energy>
64.185489268832271

$$$$
