c1ccc2c(c1)C(=O)C=C(C2=O)COC(=O)C
                    3D

 27 28  0  0  0  0  0  0  0  0999 V2000
   -4.0787    0.3910    0.5414 C   0  0  0  0  0  0  0  0  0  0  0  0
   -3.9122    0.4992   -0.8392 C   0  0  0  0  0  0  0  0  0  0  0  0
   -2.6735    0.2180   -1.4193 C   0  0  0  0  0  0  0  0  0  0  0  0
   -1.5942   -0.1698   -0.6141 C   0  0  0  0  0  0  0  0  0  0  0  0
   -1.7634   -0.2765    0.7651 C   0  0  0  0  0  0  0  0  0  0  0  0
   -3.0066    0.0029    1.3455 C   0  0  0  0  0  0  0  0  0  0  0  0
   -0.6364   -0.6830    1.6219 C   0  0  0  0  0  0  0  0  0  0  0  0
   -0.7580   -0.8213    2.8321 O   0  0  0  0  0  0  0  0  0  0  0  0
    0.6678   -0.9196    0.9760 C   0  0  0  0  0  0  0  0  0  0  0  0
    0.8519   -0.8077   -0.3462 C   0  0  0  0  0  0  0  0  0  0  0  0
   -0.2876   -0.4644   -1.2383 C   0  0  0  0  0  0  0  0  0  0  0  0
   -0.1561   -0.4333   -2.4564 O   0  0  0  0  0  0  0  0  0  0  0  0
    2.1743   -1.0589   -1.0080 C   0  0  0  0  0  0  0  0  0  0  0  0
    2.7268    0.2007   -1.4054 O   0  0  0  0  0  0  0  0  0  0  0  0
    3.9426    0.0975   -2.0064 C   0  0  0  0  0  0  0  0  0  0  0  0
    4.5793   -0.9376   -2.1417 O   0  0  0  0  0  0  0  0  0  0  0  0
    4.3957    1.4403   -2.4924 C   0  0  0  0  0  0  0  0  0  0  0  0
   -5.0439    0.6110    0.9930 H   0  0  0  0  0  0  0  0  0  0  0  0
   -4.7480    0.8031   -1.4653 H   0  0  0  0  0  0  0  0  0  0  0  0
   -2.5527    0.3038   -2.4976 H   0  0  0  0  0  0  0  0  0  0  0  0
   -3.1420   -0.0805    2.4225 H   0  0  0  0  0  0  0  0  0  0  0  0
    1.4761   -1.1844    1.6503 H   0  0  0  0  0  0  0  0  0  0  0  0
    2.0458   -1.7090   -1.8821 H   0  0  0  0  0  0  0  0  0  0  0  0
    2.8625   -1.5541   -0.3112 H   0  0  0  0  0  0  0  0  0  0  0  0
    5.4123    1.3586   -2.8877 H   0  0  0  0  0  0  0  0  0  0  0  0
    3.7342    1.7879   -3.2895 H   0  0  0  0  0  0  0  0  0  0  0  0
    4.4062    2.1528   -1.6644 H   0  0  0  0  0  0  0  0  0  0  0  0
  2  1  2  0  0  0  0
  3  2  1  0  0  0  0
  4  3  2  0  0  0  0
  5  4  1  0  0  0  0
  6  5  2  0  0  0  0
  6  1  1  0  0  0  0
  7  5  1  0  0  0  0
  8  7  2  0  0  0  0
  9  7  1  0  0  0  0
 10  9  2  0  0  0  0
 11 10  1  0  0  0  0
 11  4  1  0  0  0  0
 12 11  2  0  0  0  0
 13 10  1  0  0  0  0
 14 13  1  0  0  0  0
 15 14  1  0  0  0  0
 16 15  2  0  0  0  0
 17 15  1  0  0  0  0
  1 18  1  0  0  0  0
  2 19  1  0  0  0  0
  3 20  1  0  0  0  0
  6 21  1  0  0  0  0
  9 22  1  0  0  0  0
 13 23  1  0  0  0  0
 13 24  1  0  0  0  0
 17 25  1  0  0  0  0
 17 26  1  0  0  0  0
 17 27  1  0  0  0  0
M  END
>  <energy>
12.869683041148519

$$$$
c1ccc2c(c1)C(=O)C=C(C2=O)COC(=O)C
                    3D

 27 28  0  0  0  0  0  0  0  0999 V2000
   -4.1454   -0.6016    0.3531 C   0  0  0  0  0  0  0  0  0  0  0  0
   -3.9741   -0.1527   -0.9557 C   0  0  0  0  0  0  0  0  0  0  0  0
   -2.6982    0.1656   -1.4260 C   0  0  0  0  0  0  0  0  0  0  0  0
   -1.5891    0.0437   -0.5784 C   0  0  0  0  0  0  0  0  0  0  0  0
   -1.7641   -0.3948    0.7334 C   0  0  0  0  0  0  0  0  0  0  0  0
   -3.0427   -0.7264    1.1983 C   0  0  0  0  0  0  0  0  0  0  0  0
   -0.6116   -0.5060    1.6436 C   0  0  0  0  0  0  0  0  0  0  0  0
   -0.7386   -0.8222    2.8190 O   0  0  0  0  0  0  0  0  0  0  0  0
    0.7240   -0.2112    1.0973 C   0  0  0  0  0  0  0  0  0  0  0  0
    0.9134    0.1896   -0.1667 C   0  0  0  0  0  0  0  0  0  0  0  0
   -0.2430    0.3872   -1.0815 C   0  0  0  0  0  0  0  0  0  0  0  0
   -0.0860    0.8373   -2.2106 O   0  0  0  0  0  0  0  0  0  0  0  0
    2.2714    0.4910   -0.7263 C   0  0  0  0  0  0  0  0  0  0  0  0
    2.7155   -0.6712   -1.4393 O   0  0  0  0  0  0  0  0  0  0  0  0
    3.8539   -0.6681   -2.1737 C   0  0  0  0  0  0  0  0  0  0  0  0
    4.1878   -1.6573   -2.8201 O   0  0  0  0  0  0  0  0  0  0  0  0
    4.6982    0.5747   -2.1519 C   0  0  0  0  0  0  0  0  0  0  0  0
   -5.1372   -0.8613    0.7149 H   0  0  0  0  0  0  0  0  0  0  0  0
   -4.8323   -0.0630   -1.6203 H   0  0  0  0  0  0  0  0  0  0  0  0
   -2.5722    0.4982   -2.4551 H   0  0  0  0  0  0  0  0  0  0  0  0
   -3.1787   -1.0862    2.2181 H   0  0  0  0  0  0  0  0  0  0  0  0
    1.5499   -0.3559    1.7886 H   0  0  0  0  0  0  0  0  0  0  0  0
    2.9726    0.6941    0.0917 H   0  0  0  0  0  0  0  0  0  0  0  0
    2.2415    1.3656   -1.3801 H   0  0  0  0  0  0  0  0  0  0  0  0
    5.6359    0.3740   -2.6814 H   0  0  0  0  0  0  0  0  0  0  0  0
    4.1925    1.3952   -2.6647 H   0  0  0  0  0  0  0  0  0  0  0  0
    4.9617    0.8475   -1.1276 H   0  0  0  0  0  0  0  0  0  0  0  0
  2  1  2  0  0  0  0
  3  2  1  0  0  0  0
  4  3  2  0  0  0  0
  5  4  1  0  0  0  0
  6  5  2  0  0  0  0
  6  1  1  0  0  0  0
  7  5  1  0  0  0  0
  8  7  2  0  0  0  0
  9  7  1  0  0  0  0
 10  9  2  0  0  0  0
 11 10  1  0  0  0  0
 11  4  1  0  0  0  0
 12 11  2  0  0  0  0
 13 10  1  0  0  0  0
 14 13  1  0  0  0  0
 15 14  1  0  0  0  0
 16 15  2  0  0  0  0
 17 15  1  0  0  0  0
  1 18  1  0  0  0  0
  2 19  1  0  0  0  0
  3 20  1  0  0  0  0
  6 21  1  0  0  0  0
  9 22  1  0  0  0  0
 13 23  1  0  0  0  0
 13 24  1  0  0  0  0
 17 25  1  0  0  0  0
 17 26  1  0  0  0  0
 17 27  1  0  0  0  0
M  END
>  <energy>
22.417056339115426

$$$$
