c1ccc2c(c1)N(c1c(S2)cccc1)C=O
                    3D

 25 27  0  0  0  0  0  0  0  0999 V2000
    3.5244   -0.8679   -0.5365 C   0  0  0  0  0  0  0  0  0  0  0  0
    3.8153    0.4788   -0.3802 C   0  0  0  0  0  0  0  0  0  0  0  0
    2.8012    1.3555   -0.0095 C   0  0  0  0  0  0  0  0  0  0  0  0
    1.4937    0.8929    0.2220 C   0  0  0  0  0  0  0  0  0  0  0  0
    1.1833   -0.4725    0.1015 C   0  0  0  0  0  0  0  0  0  0  0  0
    2.2260   -1.3339   -0.3029 C   0  0  0  0  0  0  0  0  0  0  0  0
   -0.1396   -1.0008    0.3467 N   0  0  0  0  0  0  0  0  0  0  0  0
   -1.2761   -0.1268    0.1742 C   0  0  0  0  0  0  0  0  0  0  0  0
   -1.1807    1.2723    0.2745 C   0  0  0  0  0  0  0  0  0  0  0  0
    0.3129    2.1069    0.7323 S   0  0  0  0  0  0  0  0  0  0  0  0
   -2.3090    2.0897    0.0750 C   0  0  0  0  0  0  0  0  0  0  0  0
   -3.5465    1.5352   -0.2303 C   0  0  0  0  0  0  0  0  0  0  0  0
   -3.6641    0.1587   -0.3355 C   0  0  0  0  0  0  0  0  0  0  0  0
   -2.5446   -0.6576   -0.1362 C   0  0  0  0  0  0  0  0  0  0  0  0
   -0.3032   -2.3275    0.7609 C   0  0  0  0  0  0  0  0  0  0  0  0
   -1.3339   -2.9401    1.0231 O   0  0  0  0  0  0  0  0  0  0  0  0
    4.3018   -1.5589   -0.8539 H   0  0  0  0  0  0  0  0  0  0  0  0
    4.8222    0.8496   -0.5520 H   0  0  0  0  0  0  0  0  0  0  0  0
    3.0374    2.4133    0.1000 H   0  0  0  0  0  0  0  0  0  0  0  0
    2.0517   -2.3891   -0.4985 H   0  0  0  0  0  0  0  0  0  0  0  0
   -2.2262    3.1715    0.1643 H   0  0  0  0  0  0  0  0  0  0  0  0
   -4.4116    2.1750   -0.3816 H   0  0  0  0  0  0  0  0  0  0  0  0
   -4.6241   -0.2917   -0.5779 H   0  0  0  0  0  0  0  0  0  0  0  0
   -2.6957   -1.7254   -0.2698 H   0  0  0  0  0  0  0  0  0  0  0  0
    0.6517   -2.8466    0.9216 H   0  0  0  0  0  0  0  0  0  0  0  0
  2  1  2  0  0  0  0
  3  2  1  0  0  0  0
  4  3  2  0  0  0  0
  5  4  1  0  0  0  0
  6  5  2  0  0  0  0
  6  1  1  0  0  0  0
  7  5  1  0  0  0  0
  8  7  1  0  0  0  0
  9  8  2  0  0  0  0
 10  9  1  0  0  0  0
 10  4  1  0  0  0  0
 11  9  1  0  0  0  0
 12 11  2  0  0  0  0
 13 12  1  0  0  0  0
 14 13  2  0  0  0  0
 14  8  1  0  0  0  0
 15  7  1  0  0  0  0
 16 15  2  0  0  0  0
  1 17  1  0  0  0  0
  2 18  1  0  0  0  0
  3 19  1  0  0  0  0
  6 20  1  0  0  0  0
 11 21  1  0  0  0  0
 12 22  1  0  0  0  0
 13 23  1  0  0  0  0
 14 24  1  0  0  0  0
 15 25  1  0  0  0  0
M  END
>  <energy>
65.340138574208964

$$$$
