c1ccc2c(c1)C(=O)C(=CC2=O)COC
                    3D

 25 26  0  0  0  0  0  0  0  0999 V2000
   -3.8258    1.3561   -0.2997 C   0  0  0  0  0  0  0  0  0  0  0  0
   -4.1684    0.0884    0.1707 C   0  0  0  0  0  0  0  0  0  0  0  0
   -3.1860   -0.8905    0.3222 C   0  0  0  0  0  0  0  0  0  0  0  0
   -1.8537   -0.5972    0.0012 C   0  0  0  0  0  0  0  0  0  0  0  0
   -1.5082    0.6673   -0.4730 C   0  0  0  0  0  0  0  0  0  0  0  0
   -2.4974    1.6474   -0.6183 C   0  0  0  0  0  0  0  0  0  0  0  0
   -0.1100    0.9832   -0.8304 C   0  0  0  0  0  0  0  0  0  0  0  0
    0.1756    2.0885   -1.2711 O   0  0  0  0  0  0  0  0  0  0  0  0
    0.9126   -0.0784   -0.6453 C   0  0  0  0  0  0  0  0  0  0  0  0
    0.5595   -1.2881   -0.1956 C   0  0  0  0  0  0  0  0  0  0  0  0
   -0.8265   -1.6371    0.1629 C   0  0  0  0  0  0  0  0  0  0  0  0
   -1.0916   -2.7578    0.5751 O   0  0  0  0  0  0  0  0  0  0  0  0
    2.3264    0.2627   -1.0148 C   0  0  0  0  0  0  0  0  0  0  0  0
    2.9256    1.2235   -0.1489 O   0  0  0  0  0  0  0  0  0  0  0  0
    2.9047    0.8802    1.2271 C   0  0  0  0  0  0  0  0  0  0  0  0
   -4.5891    2.1222   -0.4145 H   0  0  0  0  0  0  0  0  0  0  0  0
   -5.2061   -0.1368    0.4151 H   0  0  0  0  0  0  0  0  0  0  0  0
   -3.4594   -1.8758    0.6973 H   0  0  0  0  0  0  0  0  0  0  0  0
   -2.2329    2.6387   -0.9810 H   0  0  0  0  0  0  0  0  0  0  0  0
    1.2854   -2.0815   -0.0557 H   0  0  0  0  0  0  0  0  0  0  0  0
    2.3527    0.6731   -2.0313 H   0  0  0  0  0  0  0  0  0  0  0  0
    2.9624   -0.6314   -1.0298 H   0  0  0  0  0  0  0  0  0  0  0  0
    1.9496    1.1785    1.6696 H   0  0  0  0  0  0  0  0  0  0  0  0
    3.6977    1.4449    1.7257 H   0  0  0  0  0  0  0  0  0  0  0  0
    3.0771   -0.1882    1.3883 H   0  0  0  0  0  0  0  0  0  0  0  0
  2  1  2  0  0  0  0
  3  2  1  0  0  0  0
  4  3  2  0  0  0  0
  5  4  1  0  0  0  0
  6  5  2  0  0  0  0
  6  1  1  0  0  0  0
  7  5  1  0  0  0  0
  8  7  2  0  0  0  0
  9  7  1  0  0  0  0
 10  9  2  0  0  0  0
 11 10  1  0  0  0  0
 11  4  1  0  0  0  0
 12 11  2  0  0  0  0
 13  9  1  0  0  0  0
 14 13  1  0  0  0  0
 15 14  1  0  0  0  0
  1 16  1  0  0  0  0
  2 17  1  0  0  0  0
  3 18  1  0  0  0  0
  6 19  1  0  0  0  0
 10 20  1  0  0  0  0
 13 21  1  0  0  0  0
 13 22  1  0  0  0  0
 15 23  1  0  0  0  0
 15 24  1  0  0  0  0
 15 25  1  0  0  0  0
M  END
>  <energy>
37.972557211672516

$$$$
