N1(C=C[C@@H](C=C1)[C@@H]1C=CN(C=C1)C)C
                    3D

 30 31  0  0  0  0  0  0  0  0999 V2000
    2.9935   -0.7384   -0.3898 N   0  0  0  0  0  0  0  0  0  0  0  0
    2.0615   -1.1093    0.5692 C   0  0  0  0  0  0  0  0  0  0  0  0
    1.1190   -0.2821    1.0474 C   0  0  0  0  0  0  0  0  0  0  0  0
    0.9956    1.1618    0.5589 C   0  0  0  0  0  0  0  0  0  0  0  0
    2.1179    1.4991   -0.4144 C   0  0  0  0  0  0  0  0  0  0  0  0
    3.0058    0.5806   -0.8220 C   0  0  0  0  0  0  0  0  0  0  0  0
   -0.4369    1.4421   -0.0214 C   0  0  0  0  0  0  0  0  0  0  0  0
   -0.5194    2.7258   -0.8394 C   0  0  0  0  0  0  0  0  0  0  0  0
   -1.3470    3.7270   -0.5079 C   0  0  0  0  0  0  0  0  0  0  0  0
   -2.2075    3.6802    0.5798 N   0  0  0  0  0  0  0  0  0  0  0  0
   -2.2681    2.5069    1.3204 C   0  0  0  0  0  0  0  0  0  0  0  0
   -1.4855    1.4422    1.0922 C   0  0  0  0  0  0  0  0  0  0  0  0
   -3.1846    4.7450    0.8080 C   0  0  0  0  0  0  0  0  0  0  0  0
    4.0538   -1.6664   -0.7862 C   0  0  0  0  0  0  0  0  0  0  0  0
    2.1498   -2.1319    0.9261 H   0  0  0  0  0  0  0  0  0  0  0  0
    0.4332   -0.6361    1.8116 H   0  0  0  0  0  0  0  0  0  0  0  0
    1.1481    1.8076    1.4330 H   0  0  0  0  0  0  0  0  0  0  0  0
    2.2166    2.5266   -0.7495 H   0  0  0  0  0  0  0  0  0  0  0  0
    3.8118    0.8425   -1.5057 H   0  0  0  0  0  0  0  0  0  0  0  0
   -0.6981    0.6249   -0.7059 H   0  0  0  0  0  0  0  0  0  0  0  0
    0.0894    2.8037   -1.7368 H   0  0  0  0  0  0  0  0  0  0  0  0
   -1.4044    4.6289   -1.1117 H   0  0  0  0  0  0  0  0  0  0  0  0
   -3.0223    2.4940    2.1041 H   0  0  0  0  0  0  0  0  0  0  0  0
   -1.6085    0.5526    1.6986 H   0  0  0  0  0  0  0  0  0  0  0  0
   -3.3691    4.8854    1.8780 H   0  0  0  0  0  0  0  0  0  0  0  0
   -4.1321    4.4911    0.3200 H   0  0  0  0  0  0  0  0  0  0  0  0
   -2.8391    5.7066    0.4095 H   0  0  0  0  0  0  0  0  0  0  0  0
    4.8680   -1.6430   -0.0536 H   0  0  0  0  0  0  0  0  0  0  0  0
    4.4635   -1.4126   -1.7706 H   0  0  0  0  0  0  0  0  0  0  0  0
    3.6733   -2.6933   -0.8480 H   0  0  0  0  0  0  0  0  0  0  0  0
  2  1  1  0  0  0  0
  3  2  2  0  0  0  0
  4  3  1  0  0  0  0
  5  4  1  0  0  0  0
  6  5  2  0  0  0  0
  6  1  1  0  0  0  0
  7  4  1  0  0  0  0
  8  7  1  0  0  0  0
  9  8  2  0  0  0  0
 10  9  1  0  0  0  0
 11 10  1  0  0  0  0
 12 11  2  0  0  0  0
 12  7  1  0  0  0  0
 13 10  1  0  0  0  0
 14  1  1  0  0  0  0
  2 15  1  0  0  0  0
  3 16  1  0  0  0  0
  4 17  1  0  0  0  0
  5 18  1  0  0  0  0
  6 19  1  0  0  0  0
  7 20  1  0  0  0  0
  8 21  1  0  0  0  0
  9 22  1  0  0  0  0
 11 23  1  0  0  0  0
 12 24  1  0  0  0  0
 13 25  1  0  0  0  0
 13 26  1  0  0  0  0
 13 27  1  0  0  0  0
 14 28  1  0  0  0  0
 14 29  1  0  0  0  0
 14 30  1  0  0  0  0
M  END
>  <energy>
24.576037205196425

$$$$
