N1(C=C[C@H](C=C1)[C@H]1C=CN(C=C1)c1ccccc1)c1ccccc1
                    3D

 44 47  0  0  0  0  0  0  0  0999 V2000
   -0.5104    0.0516    2.8506 N   0  0  0  0  0  0  0  0  0  0  0  0
    0.5249   -0.7051    2.2986 C   0  0  0  0  0  0  0  0  0  0  0  0
    0.9998   -0.4857    1.0609 C   0  0  0  0  0  0  0  0  0  0  0  0
    0.4134    0.6991    0.2407 C   0  0  0  0  0  0  0  0  0  0  0  0
   -1.0517    0.8869    0.6599 C   0  0  0  0  0  0  0  0  0  0  0  0
   -1.4132    0.5568    1.9093 C   0  0  0  0  0  0  0  0  0  0  0  0
    0.6879    0.6965   -1.2952 C   0  0  0  0  0  0  0  0  0  0  0  0
    2.1911    0.6233   -1.5306 C   0  0  0  0  0  0  0  0  0  0  0  0
    2.7227   -0.5539   -1.8881 C   0  0  0  0  0  0  0  0  0  0  0  0
    1.9761   -1.6686   -2.2228 N   0  0  0  0  0  0  0  0  0  0  0  0
    0.6046   -1.4875   -2.4432 C   0  0  0  0  0  0  0  0  0  0  0  0
   -0.0610   -0.3963   -2.0195 C   0  0  0  0  0  0  0  0  0  0  0  0
    2.5941   -2.9521   -2.3692 C   0  0  0  0  0  0  0  0  0  0  0  0
    1.7829   -4.0728   -2.6282 C   0  0  0  0  0  0  0  0  0  0  0  0
    2.3160   -5.3412   -2.8152 C   0  0  0  0  0  0  0  0  0  0  0  0
    3.6770   -5.5468   -2.6853 C   0  0  0  0  0  0  0  0  0  0  0  0
    4.5144   -4.4764   -2.3706 C   0  0  0  0  0  0  0  0  0  0  0  0
    3.9788   -3.1874   -2.2169 C   0  0  0  0  0  0  0  0  0  0  0  0
   -0.2557    0.8490    4.0242 C   0  0  0  0  0  0  0  0  0  0  0  0
    0.7371    0.4990    4.9541 C   0  0  0  0  0  0  0  0  0  0  0  0
    1.0373    1.3274    6.0450 C   0  0  0  0  0  0  0  0  0  0  0  0
    0.3416    2.5194    6.2361 C   0  0  0  0  0  0  0  0  0  0  0  0
   -0.6454    2.8932    5.3328 C   0  0  0  0  0  0  0  0  0  0  0  0
   -0.9444    2.0634    4.2533 C   0  0  0  0  0  0  0  0  0  0  0  0
    0.8633   -1.5143    2.9468 H   0  0  0  0  0  0  0  0  0  0  0  0
    1.7946   -1.1141    0.6704 H   0  0  0  0  0  0  0  0  0  0  0  0
    0.9518    1.6058    0.5786 H   0  0  0  0  0  0  0  0  0  0  0  0
   -1.7899    1.3052   -0.0153 H   0  0  0  0  0  0  0  0  0  0  0  0
   -2.4178    0.6751    2.3048 H   0  0  0  0  0  0  0  0  0  0  0  0
    0.3414    1.6305   -1.7586 H   0  0  0  0  0  0  0  0  0  0  0  0
    2.8854    1.4632   -1.4037 H   0  0  0  0  0  0  0  0  0  0  0  0
    3.7859   -0.6132   -1.9740 H   0  0  0  0  0  0  0  0  0  0  0  0
    0.0151   -2.2473   -2.9462 H   0  0  0  0  0  0  0  0  0  0  0  0
   -1.1333   -0.3369   -2.1730 H   0  0  0  0  0  0  0  0  0  0  0  0
    0.7049   -4.0126   -2.6481 H   0  0  0  0  0  0  0  0  0  0  0  0
    1.6221   -6.1462   -3.0362 H   0  0  0  0  0  0  0  0  0  0  0  0
    4.0818   -6.5438   -2.7937 H   0  0  0  0  0  0  0  0  0  0  0  0
    5.5837   -4.6351   -2.2391 H   0  0  0  0  0  0  0  0  0  0  0  0
    4.6812   -2.3943   -1.9423 H   0  0  0  0  0  0  0  0  0  0  0  0
    1.3280   -0.3992    4.8145 H   0  0  0  0  0  0  0  0  0  0  0  0
    1.8270    1.0270    6.7296 H   0  0  0  0  0  0  0  0  0  0  0  0
    0.5774    3.1572    7.0831 H   0  0  0  0  0  0  0  0  0  0  0  0
   -1.1792    3.8361    5.4569 H   0  0  0  0  0  0  0  0  0  0  0  0
   -1.6914    2.4187    3.5449 H   0  0  0  0  0  0  0  0  0  0  0  0
  2  1  1  0  0  0  0
  3  2  2  0  0  0  0
  4  3  1  0  0  0  0
  5  4  1  0  0  0  0
  6  5  2  0  0  0  0
  6  1  1  0  0  0  0
  7  4  1  0  0  0  0
  8  7  1  0  0  0  0
  9  8  2  0  0  0  0
 10  9  1  0  0  0  0
 11 10  1  0  0  0  0
 12 11  2  0  0  0  0
 12  7  1  0  0  0  0
 13 10  1  0  0  0  0
 14 13  2  0  0  0  0
 15 14  1  0  0  0  0
 16 15  2  0  0  0  0
 17 16  1  0  0  0  0
 18 17  2  0  0  0  0
 18 13  1  0  0  0  0
 19  1  1  0  0  0  0
 20 19  2  0  0  0  0
 21 20  1  0  0  0  0
 22 21  2  0  0  0  0
 23 22  1  0  0  0  0
 24 23  2  0  0  0  0
 24 19  1  0  0  0  0
  2 25  1  0  0  0  0
  3 26  1  0  0  0  0
  4 27  1  0  0  0  0
  5 28  1  0  0  0  0
  6 29  1  0  0  0  0
  7 30  1  0  0  0  0
  8 31  1  0  0  0  0
  9 32  1  0  0  0  0
 11 33  1  0  0  0  0
 12 34  1  0  0  0  0
 14 35  1  0  0  0  0
 15 36  1  0  0  0  0
 16 37  1  0  0  0  0
 17 38  1  0  0  0  0
 18 39  1  0  0  0  0
 20 40  1  0  0  0  0
 21 41  1  0  0  0  0
 22 42  1  0  0  0  0
 23 43  1  0  0  0  0
 24 44  1  0  0  0  0
M  END
>  <energy>
103.9827761590026

$$$$
N1(C=C[C@H](C=C1)[C@H]1C=CN(C=C1)c1ccccc1)c1ccccc1
                    3D

 44 47  0  0  0  0  0  0  0  0999 V2000
   -0.0421    1.2055    2.2137 N   0  0  0  0  0  0  0  0  0  0  0  0
   -1.1237    0.6195    1.5402 C   0  0  0  0  0  0  0  0  0  0  0  0
   -1.1559    0.4548    0.2050 C   0  0  0  0  0  0  0  0  0  0  0  0
    0.1093    0.7793   -0.5571 C   0  0  0  0  0  0  0  0  0  0  0  0
    0.8039    1.9763    0.0880 C   0  0  0  0  0  0  0  0  0  0  0  0
    0.7819    2.0351    1.4360 C   0  0  0  0  0  0  0  0  0  0  0  0
    0.0607    0.6550   -2.1297 C   0  0  0  0  0  0  0  0  0  0  0  0
    1.5092    0.6805   -2.6220 C   0  0  0  0  0  0  0  0  0  0  0  0
    2.2043   -0.4728   -2.6098 C   0  0  0  0  0  0  0  0  0  0  0  0
    1.6070   -1.7135   -2.3824 N   0  0  0  0  0  0  0  0  0  0  0  0
    0.2213   -1.7960   -2.5133 C   0  0  0  0  0  0  0  0  0  0  0  0
   -0.5627   -0.7012   -2.5033 C   0  0  0  0  0  0  0  0  0  0  0  0
    2.3183   -2.7457   -1.6992 C   0  0  0  0  0  0  0  0  0  0  0  0
    3.0653   -2.4485   -0.5377 C   0  0  0  0  0  0  0  0  0  0  0  0
    3.7394   -3.4548    0.1590 C   0  0  0  0  0  0  0  0  0  0  0  0
    3.6923   -4.7707   -0.2998 C   0  0  0  0  0  0  0  0  0  0  0  0
    2.9508   -5.0877   -1.4377 C   0  0  0  0  0  0  0  0  0  0  0  0
    2.2638   -4.0818   -2.1267 C   0  0  0  0  0  0  0  0  0  0  0  0
    0.2919    0.7752    3.5501 C   0  0  0  0  0  0  0  0  0  0  0  0
   -0.1617   -0.4813    4.0251 C   0  0  0  0  0  0  0  0  0  0  0  0
    0.1677   -0.9675    5.2949 C   0  0  0  0  0  0  0  0  0  0  0  0
    0.9629   -0.2186    6.1391 C   0  0  0  0  0  0  0  0  0  0  0  0
    1.4226    1.0274    5.7135 C   0  0  0  0  0  0  0  0  0  0  0  0
    1.0917    1.5233    4.4349 C   0  0  0  0  0  0  0  0  0  0  0  0
   -1.9469    0.3189    2.1750 H   0  0  0  0  0  0  0  0  0  0  0  0
   -1.9792   -0.0570   -0.2624 H   0  0  0  0  0  0  0  0  0  0  0  0
    0.7860   -0.0482   -0.2694 H   0  0  0  0  0  0  0  0  0  0  0  0
    1.4209    2.6557   -0.4923 H   0  0  0  0  0  0  0  0  0  0  0  0
    1.4079    2.7459    1.9609 H   0  0  0  0  0  0  0  0  0  0  0  0
   -0.5207    1.4667   -2.5960 H   0  0  0  0  0  0  0  0  0  0  0  0
    2.0008    1.6274   -2.8092 H   0  0  0  0  0  0  0  0  0  0  0  0
    3.2681   -0.5166   -2.8042 H   0  0  0  0  0  0  0  0  0  0  0  0
   -0.1793   -2.7978   -2.5937 H   0  0  0  0  0  0  0  0  0  0  0  0
   -1.6381   -0.7821   -2.6077 H   0  0  0  0  0  0  0  0  0  0  0  0
    3.0805   -1.4361   -0.1447 H   0  0  0  0  0  0  0  0  0  0  0  0
    4.2996   -3.2089    1.0593 H   0  0  0  0  0  0  0  0  0  0  0  0
    4.2412   -5.5522    0.2296 H   0  0  0  0  0  0  0  0  0  0  0  0
    2.9085   -6.1156   -1.7915 H   0  0  0  0  0  0  0  0  0  0  0  0
    1.6893   -4.3502   -3.0096 H   0  0  0  0  0  0  0  0  0  0  0  0
   -0.7861   -1.1127    3.3972 H   0  0  0  0  0  0  0  0  0  0  0  0
   -0.1990   -1.9463    5.6027 H   0  0  0  0  0  0  0  0  0  0  0  0
    1.2266   -0.6020    7.1259 H   0  0  0  0  0  0  0  0  0  0  0  0
    2.0296    1.6315    6.3892 H   0  0  0  0  0  0  0  0  0  0  0  0
    1.4347    2.5194    4.1787 H   0  0  0  0  0  0  0  0  0  0  0  0
  2  1  1  0  0  0  0
  3  2  2  0  0  0  0
  4  3  1  0  0  0  0
  5  4  1  0  0  0  0
  6  5  2  0  0  0  0
  6  1  1  0  0  0  0
  7  4  1  0  0  0  0
  8  7  1  0  0  0  0
  9  8  2  0  0  0  0
 10  9  1  0  0  0  0
 11 10  1  0  0  0  0
 12 11  2  0  0  0  0
 12  7  1  0  0  0  0
 13 10  1  0  0  0  0
 14 13  2  0  0  0  0
 15 14  1  0  0  0  0
 16 15  2  0  0  0  0
 17 16  1  0  0  0  0
 18 17  2  0  0  0  0
 18 13  1  0  0  0  0
 19  1  1  0  0  0  0
 20 19  2  0  0  0  0
 21 20  1  0  0  0  0
 22 21  2  0  0  0  0
 23 22  1  0  0  0  0
 24 23  2  0  0  0  0
 24 19  1  0  0  0  0
  2 25  1  0  0  0  0
  3 26  1  0  0  0  0
  4 27  1  0  0  0  0
  5 28  1  0  0  0  0
  6 29  1  0  0  0  0
  7 30  1  0  0  0  0
  8 31  1  0  0  0  0
  9 32  1  0  0  0  0
 11 33  1  0  0  0  0
 12 34  1  0  0  0  0
 14 35  1  0  0  0  0
 15 36  1  0  0  0  0
 16 37  1  0  0  0  0
 17 38  1  0  0  0  0
 18 39  1  0  0  0  0
 20 40  1  0  0  0  0
 21 41  1  0  0  0  0
 22 42  1  0  0  0  0
 23 43  1  0  0  0  0
 24 44  1  0  0  0  0
M  END
>  <energy>
105.77459371243074

$$$$
