N1(C=C[C@@H](C=C1c1ccccc1)[C@H]1C=CN(C(=C1)c1ccccc1)C)C
                    3D

 50 53  0  0  0  0  0  0  0  0999 V2000
    2.0341    2.2194   -1.5359 N   0  0  0  0  0  0  0  0  0  0  0  0
    0.8364    2.9245   -1.5995 C   0  0  0  0  0  0  0  0  0  0  0  0
   -0.2766    2.5721   -0.9354 C   0  0  0  0  0  0  0  0  0  0  0  0
   -0.2998    1.3546   -0.0300 C   0  0  0  0  0  0  0  0  0  0  0  0
    1.0320    0.6233   -0.0363 C   0  0  0  0  0  0  0  0  0  0  0  0
    2.0870    1.0530   -0.7559 C   0  0  0  0  0  0  0  0  0  0  0  0
    3.3004    0.2150   -0.7641 C   0  0  0  0  0  0  0  0  0  0  0  0
    4.2134    0.2453    0.2958 C   0  0  0  0  0  0  0  0  0  0  0  0
    5.3526   -0.5618    0.2633 C   0  0  0  0  0  0  0  0  0  0  0  0
    5.5830   -1.4058   -0.8220 C   0  0  0  0  0  0  0  0  0  0  0  0
    4.6769   -1.4488   -1.8781 C   0  0  0  0  0  0  0  0  0  0  0  0
    3.5408   -0.6406   -1.8503 C   0  0  0  0  0  0  0  0  0  0  0  0
   -0.7986    1.7047    1.4101 C   0  0  0  0  0  0  0  0  0  0  0  0
   -1.0280    0.4501    2.2333 C   0  0  0  0  0  0  0  0  0  0  0  0
   -0.3301    0.2262    3.3589 C   0  0  0  0  0  0  0  0  0  0  0  0
    0.6147    1.1039    3.8774 N   0  0  0  0  0  0  0  0  0  0  0  0
    0.7785    2.3517    3.2541 C   0  0  0  0  0  0  0  0  0  0  0  0
    0.1297    2.6767    2.1175 C   0  0  0  0  0  0  0  0  0  0  0  0
    1.6710    3.3756    3.8321 C   0  0  0  0  0  0  0  0  0  0  0  0
    1.2836    4.0768    4.9807 C   0  0  0  0  0  0  0  0  0  0  0  0
    2.1183    5.0530    5.5292 C   0  0  0  0  0  0  0  0  0  0  0  0
    3.3416    5.3440    4.9258 C   0  0  0  0  0  0  0  0  0  0  0  0
    3.7299    4.6631    3.7719 C   0  0  0  0  0  0  0  0  0  0  0  0
    2.8956    3.6843    3.2244 C   0  0  0  0  0  0  0  0  0  0  0  0
    1.3389    0.7450    5.1034 C   0  0  0  0  0  0  0  0  0  0  0  0
    3.2158    2.7079   -2.2600 C   0  0  0  0  0  0  0  0  0  0  0  0
    0.8461    3.7996   -2.2400 H   0  0  0  0  0  0  0  0  0  0  0  0
   -1.1817    3.1599   -1.0420 H   0  0  0  0  0  0  0  0  0  0  0  0
   -1.0313    0.6632   -0.4771 H   0  0  0  0  0  0  0  0  0  0  0  0
    1.0999   -0.2799    0.5625 H   0  0  0  0  0  0  0  0  0  0  0  0
    4.0373    0.8968    1.1462 H   0  0  0  0  0  0  0  0  0  0  0  0
    6.0575   -0.5357    1.0912 H   0  0  0  0  0  0  0  0  0  0  0  0
    6.4681   -2.0362   -0.8432 H   0  0  0  0  0  0  0  0  0  0  0  0
    4.8470   -2.1097   -2.7237 H   0  0  0  0  0  0  0  0  0  0  0  0
    2.8369   -0.6724   -2.6781 H   0  0  0  0  0  0  0  0  0  0  0  0
   -1.7765    2.2035    1.3266 H   0  0  0  0  0  0  0  0  0  0  0  0
   -1.7594   -0.2706    1.8847 H   0  0  0  0  0  0  0  0  0  0  0  0
   -0.4808   -0.6801    3.9332 H   0  0  0  0  0  0  0  0  0  0  0  0
    0.2649    3.6513    1.6550 H   0  0  0  0  0  0  0  0  0  0  0  0
    0.3243    3.8652    5.4497 H   0  0  0  0  0  0  0  0  0  0  0  0
    1.8114    5.5893    6.4218 H   0  0  0  0  0  0  0  0  0  0  0  0
    3.9905    6.1023    5.3556 H   0  0  0  0  0  0  0  0  0  0  0  0
    4.6792    4.8970    3.2969 H   0  0  0  0  0  0  0  0  0  0  0  0
    3.1978    3.1647    2.3194 H   0  0  0  0  0  0  0  0  0  0  0  0
    0.8485    1.1809    5.9809 H   0  0  0  0  0  0  0  0  0  0  0  0
    2.3811    1.0815    5.0717 H   0  0  0  0  0  0  0  0  0  0  0  0
    1.3671   -0.3424    5.2452 H   0  0  0  0  0  0  0  0  0  0  0  0
    3.5463    1.9754   -3.0047 H   0  0  0  0  0  0  0  0  0  0  0  0
    4.0395    2.9098   -1.5647 H   0  0  0  0  0  0  0  0  0  0  0  0
    3.0062    3.6390   -2.7992 H   0  0  0  0  0  0  0  0  0  0  0  0
  2  1  1  0  0  0  0
  3  2  2  0  0  0  0
  4  3  1  0  0  0  0
  5  4  1  0  0  0  0
  6  5  2  0  0  0  0
  6  1  1  0  0  0  0
  7  6  1  0  0  0  0
  8  7  2  0  0  0  0
  9  8  1  0  0  0  0
 10  9  2  0  0  0  0
 11 10  1  0  0  0  0
 12 11  2  0  0  0  0
 12  7  1  0  0  0  0
 13  4  1  0  0  0  0
 14 13  1  0  0  0  0
 15 14  2  0  0  0  0
 16 15  1  0  0  0  0
 17 16  1  0  0  0  0
 18 17  2  0  0  0  0
 18 13  1  0  0  0  0
 19 17  1  0  0  0  0
 20 19  2  0  0  0  0
 21 20  1  0  0  0  0
 22 21  2  0  0  0  0
 23 22  1  0  0  0  0
 24 23  2  0  0  0  0
 24 19  1  0  0  0  0
 25 16  1  0  0  0  0
 26  1  1  0  0  0  0
  2 27  1  0  0  0  0
  3 28  1  0  0  0  0
  4 29  1  0  0  0  0
  5 30  1  0  0  0  0
  8 31  1  0  0  0  0
  9 32  1  0  0  0  0
 10 33  1  0  0  0  0
 11 34  1  0  0  0  0
 12 35  1  0  0  0  0
 13 36  1  0  0  0  0
 14 37  1  0  0  0  0
 15 38  1  0  0  0  0
 18 39  1  0  0  0  0
 20 40  1  0  0  0  0
 21 41  1  0  0  0  0
 22 42  1  0  0  0  0
 23 43  1  0  0  0  0
 24 44  1  0  0  0  0
 25 45  1  0  0  0  0
 25 46  1  0  0  0  0
 25 47  1  0  0  0  0
 26 48  1  0  0  0  0
 26 49  1  0  0  0  0
 26 50  1  0  0  0  0
M  END
>  <energy>
56.004645831352057

$$$$
N1(C=C[C@@H](C=C1c1ccccc1)[C@H]1C=CN(C(=C1)c1ccccc1)C)C
                    3D

 50 53  0  0  0  0  0  0  0  0999 V2000
    1.6962    1.9710   -1.9260 N   0  0  0  0  0  0  0  0  0  0  0  0
    0.4309    2.5397   -2.0219 C   0  0  0  0  0  0  0  0  0  0  0  0
   -0.5754    2.2649   -1.1825 C   0  0  0  0  0  0  0  0  0  0  0  0
   -0.4073    1.2692   -0.0453 C   0  0  0  0  0  0  0  0  0  0  0  0
    1.0150    0.7354    0.0280 C   0  0  0  0  0  0  0  0  0  0  0  0
    1.9682    1.1099   -0.8498 C   0  0  0  0  0  0  0  0  0  0  0  0
    3.3388    0.6175   -0.6116 C   0  0  0  0  0  0  0  0  0  0  0  0
    4.3251    1.4877   -0.1265 C   0  0  0  0  0  0  0  0  0  0  0  0
    5.6218    1.0237    0.1084 C   0  0  0  0  0  0  0  0  0  0  0  0
    5.9375   -0.3133   -0.1353 C   0  0  0  0  0  0  0  0  0  0  0  0
    4.9602   -1.1902   -0.6028 C   0  0  0  0  0  0  0  0  0  0  0  0
    3.6654   -0.7249   -0.8413 C   0  0  0  0  0  0  0  0  0  0  0  0
   -0.8877    1.8692    1.3202 C   0  0  0  0  0  0  0  0  0  0  0  0
   -1.4516    0.7732    2.2087 C   0  0  0  0  0  0  0  0  0  0  0  0
   -0.9388    0.5220    3.4200 C   0  0  0  0  0  0  0  0  0  0  0  0
    0.1285    1.2231    3.9645 N   0  0  0  0  0  0  0  0  0  0  0  0
    0.6736    2.2938    3.2384 C   0  0  0  0  0  0  0  0  0  0  0  0
    0.2079    2.6537    2.0240 C   0  0  0  0  0  0  0  0  0  0  0  0
    1.8558    3.0091    3.7539 C   0  0  0  0  0  0  0  0  0  0  0  0
    1.7263    4.1136    4.6032 C   0  0  0  0  0  0  0  0  0  0  0  0
    2.8633    4.7739    5.0818 C   0  0  0  0  0  0  0  0  0  0  0  0
    4.1321    4.3331    4.7075 C   0  0  0  0  0  0  0  0  0  0  0  0
    4.2693    3.2346    3.8601 C   0  0  0  0  0  0  0  0  0  0  0  0
    3.1368    2.5744    3.3836 C   0  0  0  0  0  0  0  0  0  0  0  0
    0.6442    0.8577    5.2899 C   0  0  0  0  0  0  0  0  0  0  0  0
    2.7050    2.2912   -2.9390 C   0  0  0  0  0  0  0  0  0  0  0  0
    0.2953    3.2346   -2.8463 H   0  0  0  0  0  0  0  0  0  0  0  0
   -1.5466    2.7264   -1.3325 H   0  0  0  0  0  0  0  0  0  0  0  0
   -1.0505    0.4145   -0.3037 H   0  0  0  0  0  0  0  0  0  0  0  0
    1.2499    0.0849    0.8658 H   0  0  0  0  0  0  0  0  0  0  0  0
    4.0814    2.5260    0.0768 H   0  0  0  0  0  0  0  0  0  0  0  0
    6.3816    1.7044    0.4826 H   0  0  0  0  0  0  0  0  0  0  0  0
    6.9467   -0.6749    0.0420 H   0  0  0  0  0  0  0  0  0  0  0  0
    5.1982   -2.2338   -0.7838 H   0  0  0  0  0  0  0  0  0  0  0  0
    2.9066   -1.4105   -1.2063 H   0  0  0  0  0  0  0  0  0  0  0  0
   -1.7146    2.5663    1.1313 H   0  0  0  0  0  0  0  0  0  0  0  0
   -2.2900    0.1930    1.8394 H   0  0  0  0  0  0  0  0  0  0  0  0
   -1.3438   -0.2687    4.0474 H   0  0  0  0  0  0  0  0  0  0  0  0
    0.6612    3.4738    1.4723 H   0  0  0  0  0  0  0  0  0  0  0  0
    0.7393    4.4605    4.8985 H   0  0  0  0  0  0  0  0  0  0  0  0
    2.7589    5.6273    5.7475 H   0  0  0  0  0  0  0  0  0  0  0  0
    5.0162    4.8425    5.0838 H   0  0  0  0  0  0  0  0  0  0  0  0
    5.2585    2.8857    3.5731 H   0  0  0  0  0  0  0  0  0  0  0  0
    3.2448    1.7136    2.7259 H   0  0  0  0  0  0  0  0  0  0  0  0
    0.4888    1.6744    6.0017 H   0  0  0  0  0  0  0  0  0  0  0  0
    1.7121    0.6134    5.2393 H   0  0  0  0  0  0  0  0  0  0  0  0
    0.1390   -0.0275    5.6960 H   0  0  0  0  0  0  0  0  0  0  0  0
    3.3605    1.4404   -3.1585 H   0  0  0  0  0  0  0  0  0  0  0  0
    3.3179    3.1372   -2.6139 H   0  0  0  0  0  0  0  0  0  0  0  0
    2.2317    2.5633   -3.8891 H   0  0  0  0  0  0  0  0  0  0  0  0
  2  1  1  0  0  0  0
  3  2  2  0  0  0  0
  4  3  1  0  0  0  0
  5  4  1  0  0  0  0
  6  5  2  0  0  0  0
  6  1  1  0  0  0  0
  7  6  1  0  0  0  0
  8  7  2  0  0  0  0
  9  8  1  0  0  0  0
 10  9  2  0  0  0  0
 11 10  1  0  0  0  0
 12 11  2  0  0  0  0
 12  7  1  0  0  0  0
 13  4  1  0  0  0  0
 14 13  1  0  0  0  0
 15 14  2  0  0  0  0
 16 15  1  0  0  0  0
 17 16  1  0  0  0  0
 18 17  2  0  0  0  0
 18 13  1  0  0  0  0
 19 17  1  0  0  0  0
 20 19  2  0  0  0  0
 21 20  1  0  0  0  0
 22 21  2  0  0  0  0
 23 22  1  0  0  0  0
 24 23  2  0  0  0  0
 24 19  1  0  0  0  0
 25 16  1  0  0  0  0
 26  1  1  0  0  0  0
  2 27  1  0  0  0  0
  3 28  1  0  0  0  0
  4 29  1  0  0  0  0
  5 30  1  0  0  0  0
  8 31  1  0  0  0  0
  9 32  1  0  0  0  0
 10 33  1  0  0  0  0
 11 34  1  0  0  0  0
 12 35  1  0  0  0  0
 13 36  1  0  0  0  0
 14 37  1  0  0  0  0
 15 38  1  0  0  0  0
 18 39  1  0  0  0  0
 20 40  1  0  0  0  0
 21 41  1  0  0  0  0
 22 42  1  0  0  0  0
 23 43  1  0  0  0  0
 24 44  1  0  0  0  0
 25 45  1  0  0  0  0
 25 46  1  0  0  0  0
 25 47  1  0  0  0  0
 26 48  1  0  0  0  0
 26 49  1  0  0  0  0
 26 50  1  0  0  0  0
M  END
>  <energy>
56.609608006105532

$$$$
N1(C=C[C@@H](C=C1c1ccccc1)[C@H]1C=CN(C(=C1)c1ccccc1)C)C
                    3D

 50 53  0  0  0  0  0  0  0  0999 V2000
    3.9896    1.3267   -0.9340 N   0  0  0  0  0  0  0  0  0  0  0  0
    3.9114    2.3722   -0.0215 C   0  0  0  0  0  0  0  0  0  0  0  0
    2.8071    2.6783    0.6708 C   0  0  0  0  0  0  0  0  0  0  0  0
    1.5279    1.8755    0.5104 C   0  0  0  0  0  0  0  0  0  0  0  0
    1.7089    0.7107   -0.4510 C   0  0  0  0  0  0  0  0  0  0  0  0
    2.8687    0.4979   -1.1063 C   0  0  0  0  0  0  0  0  0  0  0  0
    2.9261   -0.6410   -2.0430 C   0  0  0  0  0  0  0  0  0  0  0  0
    3.5604   -1.8359   -1.6757 C   0  0  0  0  0  0  0  0  0  0  0  0
    3.6097   -2.9106   -2.5650 C   0  0  0  0  0  0  0  0  0  0  0  0
    3.0158   -2.8033   -3.8233 C   0  0  0  0  0  0  0  0  0  0  0  0
    2.3793   -1.6198   -4.1971 C   0  0  0  0  0  0  0  0  0  0  0  0
    2.3370   -0.5422   -3.3125 C   0  0  0  0  0  0  0  0  0  0  0  0
    0.9039    1.4254    1.8735 C   0  0  0  0  0  0  0  0  0  0  0  0
    1.8252    0.5346    2.6863 C   0  0  0  0  0  0  0  0  0  0  0  0
    2.2321    0.8901    3.9138 C   0  0  0  0  0  0  0  0  0  0  0  0
    1.8551    2.0716    4.5459 N   0  0  0  0  0  0  0  0  0  0  0  0
    0.9404    2.9166    3.8960 C   0  0  0  0  0  0  0  0  0  0  0  0
    0.4512    2.6418    2.6707 C   0  0  0  0  0  0  0  0  0  0  0  0
    0.5084    4.1755    4.5355 C   0  0  0  0  0  0  0  0  0  0  0  0
   -0.5118    4.1665    5.4934 C   0  0  0  0  0  0  0  0  0  0  0  0
   -0.9113    5.3567    6.1056 C   0  0  0  0  0  0  0  0  0  0  0  0
   -0.3029    6.5621    5.7548 C   0  0  0  0  0  0  0  0  0  0  0  0
    0.7079    6.5832    4.7958 C   0  0  0  0  0  0  0  0  0  0  0  0
    1.1122    5.3924    4.1853 C   0  0  0  0  0  0  0  0  0  0  0  0
    2.3590    2.3701    5.8924 C   0  0  0  0  0  0  0  0  0  0  0  0
    5.2300    1.1183   -1.6905 C   0  0  0  0  0  0  0  0  0  0  0  0
    4.8184    2.9580    0.0966 H   0  0  0  0  0  0  0  0  0  0  0  0
    2.8103    3.5168    1.3600 H   0  0  0  0  0  0  0  0  0  0  0  0
    0.8043    2.5490    0.0283 H   0  0  0  0  0  0  0  0  0  0  0  0
    0.8534    0.0617   -0.6138 H   0  0  0  0  0  0  0  0  0  0  0  0
    4.0178   -1.9249   -0.6927 H   0  0  0  0  0  0  0  0  0  0  0  0
    4.1105   -3.8327   -2.2793 H   0  0  0  0  0  0  0  0  0  0  0  0
    3.0483   -3.6431   -4.5131 H   0  0  0  0  0  0  0  0  0  0  0  0
    1.9218   -1.5361   -5.1797 H   0  0  0  0  0  0  0  0  0  0  0  0
    1.8420    0.3797   -3.6109 H   0  0  0  0  0  0  0  0  0  0  0  0
   -0.0013    0.8373    1.6622 H   0  0  0  0  0  0  0  0  0  0  0  0
    2.1605   -0.4000    2.2483 H   0  0  0  0  0  0  0  0  0  0  0  0
    2.9040    0.2528    4.4798 H   0  0  0  0  0  0  0  0  0  0  0  0
   -0.2666    3.3044    2.1935 H   0  0  0  0  0  0  0  0  0  0  0  0
   -0.9889    3.2280    5.7672 H   0  0  0  0  0  0  0  0  0  0  0  0
   -1.6964    5.3440    6.8573 H   0  0  0  0  0  0  0  0  0  0  0  0
   -0.6150    7.4867    6.2365 H   0  0  0  0  0  0  0  0  0  0  0  0
    1.1805    7.5242    4.5260 H   0  0  0  0  0  0  0  0  0  0  0  0
    1.9059    5.4118    3.4424 H   0  0  0  0  0  0  0  0  0  0  0  0
    1.5571    2.2685    6.6321 H   0  0  0  0  0  0  0  0  0  0  0  0
    2.7703    3.3835    5.9426 H   0  0  0  0  0  0  0  0  0  0  0  0
    3.1649    1.6884    6.1897 H   0  0  0  0  0  0  0  0  0  0  0  0
    5.0257    1.0147   -2.7618 H   0  0  0  0  0  0  0  0  0  0  0  0
    5.7506    0.2238   -1.3319 H   0  0  0  0  0  0  0  0  0  0  0  0
    5.9158    1.9670   -1.5838 H   0  0  0  0  0  0  0  0  0  0  0  0
  2  1  1  0  0  0  0
  3  2  2  0  0  0  0
  4  3  1  0  0  0  0
  5  4  1  0  0  0  0
  6  5  2  0  0  0  0
  6  1  1  0  0  0  0
  7  6  1  0  0  0  0
  8  7  2  0  0  0  0
  9  8  1  0  0  0  0
 10  9  2  0  0  0  0
 11 10  1  0  0  0  0
 12 11  2  0  0  0  0
 12  7  1  0  0  0  0
 13  4  1  0  0  0  0
 14 13  1  0  0  0  0
 15 14  2  0  0  0  0
 16 15  1  0  0  0  0
 17 16  1  0  0  0  0
 18 17  2  0  0  0  0
 18 13  1  0  0  0  0
 19 17  1  0  0  0  0
 20 19  2  0  0  0  0
 21 20  1  0  0  0  0
 22 21  2  0  0  0  0
 23 22  1  0  0  0  0
 24 23  2  0  0  0  0
 24 19  1  0  0  0  0
 25 16  1  0  0  0  0
 26  1  1  0  0  0  0
  2 27  1  0  0  0  0
  3 28  1  0  0  0  0
  4 29  1  0  0  0  0
  5 30  1  0  0  0  0
  8 31  1  0  0  0  0
  9 32  1  0  0  0  0
 10 33  1  0  0  0  0
 11 34  1  0  0  0  0
 12 35  1  0  0  0  0
 13 36  1  0  0  0  0
 14 37  1  0  0  0  0
 15 38  1  0  0  0  0
 18 39  1  0  0  0  0
 20 40  1  0  0  0  0
 21 41  1  0  0  0  0
 22 42  1  0  0  0  0
 23 43  1  0  0  0  0
 24 44  1  0  0  0  0
 25 45  1  0  0  0  0
 25 46  1  0  0  0  0
 25 47  1  0  0  0  0
 26 48  1  0  0  0  0
 26 49  1  0  0  0  0
 26 50  1  0  0  0  0
M  END
>  <energy>
58.115683589088349

$$$$
N1(C=C[C@@H](C=C1c1ccccc1)[C@H]1C=CN(C(=C1)c1ccccc1)C)C
                    3D

 50 53  0  0  0  0  0  0  0  0999 V2000
   -0.6478    3.2108    3.8305 N   0  0  0  0  0  0  0  0  0  0  0  0
   -1.6119    2.9320    2.8707 C   0  0  0  0  0  0  0  0  0  0  0  0
   -1.3319    2.4882    1.6360 C   0  0  0  0  0  0  0  0  0  0  0  0
    0.0992    2.2487    1.1718 C   0  0  0  0  0  0  0  0  0  0  0  0
    1.0866    2.5765    2.2829 C   0  0  0  0  0  0  0  0  0  0  0  0
    0.7001    3.0045    3.5006 C   0  0  0  0  0  0  0  0  0  0  0  0
    1.7582    3.2598    4.4972 C   0  0  0  0  0  0  0  0  0  0  0  0
    1.9999    2.3439    5.5324 C   0  0  0  0  0  0  0  0  0  0  0  0
    3.0229    2.5785    6.4536 C   0  0  0  0  0  0  0  0  0  0  0  0
    3.8147    3.7218    6.3391 C   0  0  0  0  0  0  0  0  0  0  0  0
    3.5787    4.6381    5.3132 C   0  0  0  0  0  0  0  0  0  0  0  0
    2.5488    4.4122    4.4006 C   0  0  0  0  0  0  0  0  0  0  0  0
    0.3128    0.8072    0.5808 C   0  0  0  0  0  0  0  0  0  0  0  0
   -0.5660    0.5777   -0.6419 C   0  0  0  0  0  0  0  0  0  0  0  0
   -0.0383    0.4579   -1.8679 C   0  0  0  0  0  0  0  0  0  0  0  0
    1.3271    0.4721   -2.1317 N   0  0  0  0  0  0  0  0  0  0  0  0
    2.2089    0.4289   -1.0411 C   0  0  0  0  0  0  0  0  0  0  0  0
    1.7773    0.5517    0.2293 C   0  0  0  0  0  0  0  0  0  0  0  0
    3.6586    0.2440   -1.2566 C   0  0  0  0  0  0  0  0  0  0  0  0
    4.1578   -0.9954   -1.6787 C   0  0  0  0  0  0  0  0  0  0  0  0
    5.5242   -1.1756   -1.9001 C   0  0  0  0  0  0  0  0  0  0  0  0
    6.4081   -0.1195   -1.6899 C   0  0  0  0  0  0  0  0  0  0  0  0
    5.9279    1.1160   -1.2573 C   0  0  0  0  0  0  0  0  0  0  0  0
    4.5584    1.2978   -1.0397 C   0  0  0  0  0  0  0  0  0  0  0  0
    1.7985    0.3823   -3.5172 C   0  0  0  0  0  0  0  0  0  0  0  0
   -1.0317    3.8535    5.0938 C   0  0  0  0  0  0  0  0  0  0  0  0
   -2.6387    3.1142    3.1783 H   0  0  0  0  0  0  0  0  0  0  0  0
   -2.1425    2.3329    0.9335 H   0  0  0  0  0  0  0  0  0  0  0  0
    0.2899    2.9732    0.3651 H   0  0  0  0  0  0  0  0  0  0  0  0
    2.1417    2.4708    2.0561 H   0  0  0  0  0  0  0  0  0  0  0  0
    1.3899    1.4471    5.6206 H   0  0  0  0  0  0  0  0  0  0  0  0
    3.2044    1.8641    7.2544 H   0  0  0  0  0  0  0  0  0  0  0  0
    4.6172    3.9011    7.0516 H   0  0  0  0  0  0  0  0  0  0  0  0
    4.1957    5.5252    5.2186 H   0  0  0  0  0  0  0  0  0  0  0  0
    2.3609    5.1342    3.6110 H   0  0  0  0  0  0  0  0  0  0  0  0
    0.0296    0.0631    1.3373 H   0  0  0  0  0  0  0  0  0  0  0  0
   -1.6407    0.5237   -0.5088 H   0  0  0  0  0  0  0  0  0  0  0  0
   -0.6731    0.3289   -2.7406 H   0  0  0  0  0  0  0  0  0  0  0  0
    2.4796    0.4799    1.0557 H   0  0  0  0  0  0  0  0  0  0  0  0
    3.4750   -1.8276   -1.8411 H   0  0  0  0  0  0  0  0  0  0  0  0
    5.8962   -2.1430   -2.2336 H   0  0  0  0  0  0  0  0  0  0  0  0
    7.4720   -0.2623   -1.8670 H   0  0  0  0  0  0  0  0  0  0  0  0
    6.6196    1.9369   -1.0887 H   0  0  0  0  0  0  0  0  0  0  0  0
    4.1949    2.2660   -0.7053 H   0  0  0  0  0  0  0  0  0  0  0  0
    2.0219   -0.6587   -3.7752 H   0  0  0  0  0  0  0  0  0  0  0  0
    2.6919    0.9938   -3.6857 H   0  0  0  0  0  0  0  0  0  0  0  0
    1.0407    0.7406   -4.2257 H   0  0  0  0  0  0  0  0  0  0  0  0
   -0.4904    4.7975    5.2312 H   0  0  0  0  0  0  0  0  0  0  0  0
   -0.8278    3.1988    5.9473 H   0  0  0  0  0  0  0  0  0  0  0  0
   -2.1015    4.0971    5.1185 H   0  0  0  0  0  0  0  0  0  0  0  0
  2  1  1  0  0  0  0
  3  2  2  0  0  0  0
  4  3  1  0  0  0  0
  5  4  1  0  0  0  0
  6  5  2  0  0  0  0
  6  1  1  0  0  0  0
  7  6  1  0  0  0  0
  8  7  2  0  0  0  0
  9  8  1  0  0  0  0
 10  9  2  0  0  0  0
 11 10  1  0  0  0  0
 12 11  2  0  0  0  0
 12  7  1  0  0  0  0
 13  4  1  0  0  0  0
 14 13  1  0  0  0  0
 15 14  2  0  0  0  0
 16 15  1  0  0  0  0
 17 16  1  0  0  0  0
 18 17  2  0  0  0  0
 18 13  1  0  0  0  0
 19 17  1  0  0  0  0
 20 19  2  0  0  0  0
 21 20  1  0  0  0  0
 22 21  2  0  0  0  0
 23 22  1  0  0  0  0
 24 23  2  0  0  0  0
 24 19  1  0  0  0  0
 25 16  1  0  0  0  0
 26  1  1  0  0  0  0
  2 27  1  0  0  0  0
  3 28  1  0  0  0  0
  4 29  1  0  0  0  0
  5 30  1  0  0  0  0
  8 31  1  0  0  0  0
  9 32  1  0  0  0  0
 10 33  1  0  0  0  0
 11 34  1  0  0  0  0
 12 35  1  0  0  0  0
 13 36  1  0  0  0  0
 14 37  1  0  0  0  0
 15 38  1  0  0  0  0
 18 39  1  0  0  0  0
 20 40  1  0  0  0  0
 21 41  1  0  0  0  0
 22 42  1  0  0  0  0
 23 43  1  0  0  0  0
 24 44  1  0  0  0  0
 25 45  1  0  0  0  0
 25 46  1  0  0  0  0
 25 47  1  0  0  0  0
 26 48  1  0  0  0  0
 26 49  1  0  0  0  0
 26 50  1  0  0  0  0
M  END
>  <energy>
59.203146817402931

$$$$
N1(C=C[C@@H](C=C1c1ccccc1)[C@H]1C=CN(C(=C1)c1ccccc1)C)C
                    3D

 50 53  0  0  0  0  0  0  0  0999 V2000
   -0.2222    4.1290    3.1906 N   0  0  0  0  0  0  0  0  0  0  0  0
   -0.7288    3.9018    1.9170 C   0  0  0  0  0  0  0  0  0  0  0  0
   -0.1387    3.1094    1.0111 C   0  0  0  0  0  0  0  0  0  0  0  0
    1.1512    2.3662    1.3163 C   0  0  0  0  0  0  0  0  0  0  0  0
    1.6107    2.6246    2.7454 C   0  0  0  0  0  0  0  0  0  0  0  0
    0.9448    3.4508    3.5779 C   0  0  0  0  0  0  0  0  0  0  0  0
    1.4799    3.6291    4.9424 C   0  0  0  0  0  0  0  0  0  0  0  0
    0.8443    3.0305    6.0383 C   0  0  0  0  0  0  0  0  0  0  0  0
    1.3459    3.1998    7.3317 C   0  0  0  0  0  0  0  0  0  0  0  0
    2.4956    3.9635    7.5339 C   0  0  0  0  0  0  0  0  0  0  0  0
    3.1351    4.5678    6.4520 C   0  0  0  0  0  0  0  0  0  0  0  0
    2.6257    4.4071    5.1617 C   0  0  0  0  0  0  0  0  0  0  0  0
    1.1260    0.8207    1.0050 C   0  0  0  0  0  0  0  0  0  0  0  0
   -0.1073    0.3612    0.2440 C   0  0  0  0  0  0  0  0  0  0  0  0
   -0.0271   -0.0675   -1.0212 C   0  0  0  0  0  0  0  0  0  0  0  0
    1.1683   -0.1793   -1.7239 N   0  0  0  0  0  0  0  0  0  0  0  0
    2.3750    0.0198   -1.0297 C   0  0  0  0  0  0  0  0  0  0  0  0
    2.3976    0.4484    0.2502 C   0  0  0  0  0  0  0  0  0  0  0  0
    3.6660   -0.2456   -1.6955 C   0  0  0  0  0  0  0  0  0  0  0  0
    4.0683   -1.5626   -1.9580 C   0  0  0  0  0  0  0  0  0  0  0  0
    5.2663   -1.8133   -2.6307 C   0  0  0  0  0  0  0  0  0  0  0  0
    6.0765   -0.7540   -3.0343 C   0  0  0  0  0  0  0  0  0  0  0  0
    5.6980    0.5586   -2.7526 C   0  0  0  0  0  0  0  0  0  0  0  0
    4.4957    0.8125   -2.0873 C   0  0  0  0  0  0  0  0  0  0  0  0
    1.1391   -0.6064   -3.1278 C   0  0  0  0  0  0  0  0  0  0  0  0
   -0.8448    5.1414    4.0536 C   0  0  0  0  0  0  0  0  0  0  0  0
   -1.6426    4.4382    1.6756 H   0  0  0  0  0  0  0  0  0  0  0  0
   -0.5622    3.0163    0.0154 H   0  0  0  0  0  0  0  0  0  0  0  0
    1.9066    2.8333    0.6671 H   0  0  0  0  0  0  0  0  0  0  0  0
    2.5185    2.1289    3.0728 H   0  0  0  0  0  0  0  0  0  0  0  0
   -0.0463    2.4252    5.8821 H   0  0  0  0  0  0  0  0  0  0  0  0
    0.8443    2.7317    8.1749 H   0  0  0  0  0  0  0  0  0  0  0  0
    2.8999    4.0770    8.5360 H   0  0  0  0  0  0  0  0  0  0  0  0
    4.0303    5.1639    6.6091 H   0  0  0  0  0  0  0  0  0  0  0  0
    3.1270    4.8855    4.3236 H   0  0  0  0  0  0  0  0  0  0  0  0
    1.1390    0.2540    1.9460 H   0  0  0  0  0  0  0  0  0  0  0  0
   -1.0659    0.4120    0.7502 H   0  0  0  0  0  0  0  0  0  0  0  0
   -0.9182   -0.3574   -1.5716 H   0  0  0  0  0  0  0  0  0  0  0  0
    3.3383    0.5742    0.7758 H   0  0  0  0  0  0  0  0  0  0  0  0
    3.4389   -2.3942   -1.6440 H   0  0  0  0  0  0  0  0  0  0  0  0
    5.5589   -2.8380   -2.8389 H   0  0  0  0  0  0  0  0  0  0  0  0
    7.0072   -0.9527   -3.5594 H   0  0  0  0  0  0  0  0  0  0  0  0
    6.3336    1.3866   -3.0583 H   0  0  0  0  0  0  0  0  0  0  0  0
    4.2033    1.8397   -1.8849 H   0  0  0  0  0  0  0  0  0  0  0  0
    1.3261   -1.6833   -3.2019 H   0  0  0  0  0  0  0  0  0  0  0  0
    1.8809   -0.0717   -3.7320 H   0  0  0  0  0  0  0  0  0  0  0  0
    0.1636   -0.4072   -3.5909 H   0  0  0  0  0  0  0  0  0  0  0  0
   -0.1078    5.8862    4.3748 H   0  0  0  0  0  0  0  0  0  0  0  0
   -1.2952    4.6767    4.9374 H   0  0  0  0  0  0  0  0  0  0  0  0
   -1.6378    5.6895    3.5323 H   0  0  0  0  0  0  0  0  0  0  0  0
  2  1  1  0  0  0  0
  3  2  2  0  0  0  0
  4  3  1  0  0  0  0
  5  4  1  0  0  0  0
  6  5  2  0  0  0  0
  6  1  1  0  0  0  0
  7  6  1  0  0  0  0
  8  7  2  0  0  0  0
  9  8  1  0  0  0  0
 10  9  2  0  0  0  0
 11 10  1  0  0  0  0
 12 11  2  0  0  0  0
 12  7  1  0  0  0  0
 13  4  1  0  0  0  0
 14 13  1  0  0  0  0
 15 14  2  0  0  0  0
 16 15  1  0  0  0  0
 17 16  1  0  0  0  0
 18 17  2  0  0  0  0
 18 13  1  0  0  0  0
 19 17  1  0  0  0  0
 20 19  2  0  0  0  0
 21 20  1  0  0  0  0
 22 21  2  0  0  0  0
 23 22  1  0  0  0  0
 24 23  2  0  0  0  0
 24 19  1  0  0  0  0
 25 16  1  0  0  0  0
 26  1  1  0  0  0  0
  2 27  1  0  0  0  0
  3 28  1  0  0  0  0
  4 29  1  0  0  0  0
  5 30  1  0  0  0  0
  8 31  1  0  0  0  0
  9 32  1  0  0  0  0
 10 33  1  0  0  0  0
 11 34  1  0  0  0  0
 12 35  1  0  0  0  0
 13 36  1  0  0  0  0
 14 37  1  0  0  0  0
 15 38  1  0  0  0  0
 18 39  1  0  0  0  0
 20 40  1  0  0  0  0
 21 41  1  0  0  0  0
 22 42  1  0  0  0  0
 23 43  1  0  0  0  0
 24 44  1  0  0  0  0
 25 45  1  0  0  0  0
 25 46  1  0  0  0  0
 25 47  1  0  0  0  0
 26 48  1  0  0  0  0
 26 49  1  0  0  0  0
 26 50  1  0  0  0  0
M  END
>  <energy>
60.204761006789752

$$$$
N1(C=C[C@@H](C=C1c1ccccc1)[C@H]1C=CN(C(=C1)c1ccccc1)C)C
                    3D

 50 53  0  0  0  0  0  0  0  0999 V2000
   -0.5675    2.7100    4.0032 N   0  0  0  0  0  0  0  0  0  0  0  0
   -1.6595    2.2545    3.2738 C   0  0  0  0  0  0  0  0  0  0  0  0
   -1.6043    1.9379    1.9717 C   0  0  0  0  0  0  0  0  0  0  0  0
   -0.3182    2.0772    1.1707 C   0  0  0  0  0  0  0  0  0  0  0  0
    0.8225    2.5752    2.0410 C   0  0  0  0  0  0  0  0  0  0  0  0
    0.6715    2.8189    3.3540 C   0  0  0  0  0  0  0  0  0  0  0  0
    1.8748    3.1762    4.1340 C   0  0  0  0  0  0  0  0  0  0  0  0
    2.3398    2.3050    5.1340 C   0  0  0  0  0  0  0  0  0  0  0  0
    3.4504    2.6401    5.9080 C   0  0  0  0  0  0  0  0  0  0  0  0
    4.1016    3.8520    5.6904 C   0  0  0  0  0  0  0  0  0  0  0  0
    3.6742    4.7064    4.6727 C   0  0  0  0  0  0  0  0  0  0  0  0
    2.5613    4.3740    3.8980 C   0  0  0  0  0  0  0  0  0  0  0  0
   -0.0084    0.7409    0.4016 C   0  0  0  0  0  0  0  0  0  0  0  0
   -0.6637    0.8161   -0.9654 C   0  0  0  0  0  0  0  0  0  0  0  0
    0.0722    0.9517   -2.0752 C   0  0  0  0  0  0  0  0  0  0  0  0
    1.4652    0.9949   -2.0701 N   0  0  0  0  0  0  0  0  0  0  0  0
    2.1347    0.5945   -0.8952 C   0  0  0  0  0  0  0  0  0  0  0  0
    1.4766    0.4277    0.2688 C   0  0  0  0  0  0  0  0  0  0  0  0
    3.5875    0.3082   -0.9511 C   0  0  0  0  0  0  0  0  0  0  0  0
    4.0983   -0.5334   -1.9559 C   0  0  0  0  0  0  0  0  0  0  0  0
    5.4729   -0.7489   -2.0826 C   0  0  0  0  0  0  0  0  0  0  0  0
    6.3489   -0.1635   -1.1692 C   0  0  0  0  0  0  0  0  0  0  0  0
    5.8549    0.6527   -0.1491 C   0  0  0  0  0  0  0  0  0  0  0  0
    4.4819    0.9010   -0.0481 C   0  0  0  0  0  0  0  0  0  0  0  0
    2.1451    1.6660   -3.1894 C   0  0  0  0  0  0  0  0  0  0  0  0
   -0.7714    3.2782    5.3399 C   0  0  0  0  0  0  0  0  0  0  0  0
   -2.5845    2.1807    3.8338 H   0  0  0  0  0  0  0  0  0  0  0  0
   -2.4971    1.5872    1.4622 H   0  0  0  0  0  0  0  0  0  0  0  0
   -0.5034    2.8848    0.4377 H   0  0  0  0  0  0  0  0  0  0  0  0
    1.7837    2.7276    1.5566 H   0  0  0  0  0  0  0  0  0  0  0  0
    1.8202    1.3657    5.3105 H   0  0  0  0  0  0  0  0  0  0  0  0
    3.8026    1.9567    6.6742 H   0  0  0  0  0  0  0  0  0  0  0  0
    4.9450    4.1326    6.3122 H   0  0  0  0  0  0  0  0  0  0  0  0
    4.2079    5.6354    4.4813 H   0  0  0  0  0  0  0  0  0  0  0  0
    2.2262    5.0511    3.1157 H   0  0  0  0  0  0  0  0  0  0  0  0
   -0.4515   -0.1171    0.9285 H   0  0  0  0  0  0  0  0  0  0  0  0
   -1.7448    0.8324   -1.0267 H   0  0  0  0  0  0  0  0  0  0  0  0
   -0.3917    1.0640   -3.0523 H   0  0  0  0  0  0  0  0  0  0  0  0
    1.9761    0.0855    1.1764 H   0  0  0  0  0  0  0  0  0  0  0  0
    3.4193   -1.0018   -2.6725 H   0  0  0  0  0  0  0  0  0  0  0  0
    5.8558   -1.3619   -2.8960 H   0  0  0  0  0  0  0  0  0  0  0  0
    7.4158   -0.3368   -1.2579 H   0  0  0  0  0  0  0  0  0  0  0  0
    6.5346    1.1153    0.5642 H   0  0  0  0  0  0  0  0  0  0  0  0
    4.1182    1.5788    0.7243 H   0  0  0  0  0  0  0  0  0  0  0  0
    3.2303    1.7419   -3.0786 H   0  0  0  0  0  0  0  0  0  0  0  0
    1.7808    2.6971   -3.2756 H   0  0  0  0  0  0  0  0  0  0  0  0
    1.9379    1.1500   -4.1346 H   0  0  0  0  0  0  0  0  0  0  0  0
   -0.4452    4.3249    5.3482 H   0  0  0  0  0  0  0  0  0  0  0  0
   -0.2208    2.7288    6.1144 H   0  0  0  0  0  0  0  0  0  0  0  0
   -1.8268    3.2702    5.6262 H   0  0  0  0  0  0  0  0  0  0  0  0
  2  1  1  0  0  0  0
  3  2  2  0  0  0  0
  4  3  1  0  0  0  0
  5  4  1  0  0  0  0
  6  5  2  0  0  0  0
  6  1  1  0  0  0  0
  7  6  1  0  0  0  0
  8  7  2  0  0  0  0
  9  8  1  0  0  0  0
 10  9  2  0  0  0  0
 11 10  1  0  0  0  0
 12 11  2  0  0  0  0
 12  7  1  0  0  0  0
 13  4  1  0  0  0  0
 14 13  1  0  0  0  0
 15 14  2  0  0  0  0
 16 15  1  0  0  0  0
 17 16  1  0  0  0  0
 18 17  2  0  0  0  0
 18 13  1  0  0  0  0
 19 17  1  0  0  0  0
 20 19  2  0  0  0  0
 21 20  1  0  0  0  0
 22 21  2  0  0  0  0
 23 22  1  0  0  0  0
 24 23  2  0  0  0  0
 24 19  1  0  0  0  0
 25 16  1  0  0  0  0
 26  1  1  0  0  0  0
  2 27  1  0  0  0  0
  3 28  1  0  0  0  0
  4 29  1  0  0  0  0
  5 30  1  0  0  0  0
  8 31  1  0  0  0  0
  9 32  1  0  0  0  0
 10 33  1  0  0  0  0
 11 34  1  0  0  0  0
 12 35  1  0  0  0  0
 13 36  1  0  0  0  0
 14 37  1  0  0  0  0
 15 38  1  0  0  0  0
 18 39  1  0  0  0  0
 20 40  1  0  0  0  0
 21 41  1  0  0  0  0
 22 42  1  0  0  0  0
 23 43  1  0  0  0  0
 24 44  1  0  0  0  0
 25 45  1  0  0  0  0
 25 46  1  0  0  0  0
 25 47  1  0  0  0  0
 26 48  1  0  0  0  0
 26 49  1  0  0  0  0
 26 50  1  0  0  0  0
M  END
>  <energy>
65.562718686802413

$$$$
