c1ccc2c(c1)C(=O)c1c(C2=O)c(c(cc1O)S(=O)(=O)[O])O
                    3D

 29 31  0  0  0  0  0  0  0  0999 V2000
   -4.4773    0.4451    0.0784 C   0  0  0  0  0  0  0  0  0  0  0  0
   -4.3511   -0.9136   -0.2043 C   0  0  0  0  0  0  0  0  0  0  0  0
   -3.0832   -1.4902   -0.3058 C   0  0  0  0  0  0  0  0  0  0  0  0
   -1.9329   -0.7076   -0.1257 C   0  0  0  0  0  0  0  0  0  0  0  0
   -2.0639    0.6463    0.1567 C   0  0  0  0  0  0  0  0  0  0  0  0
   -3.3359    1.2267    0.2602 C   0  0  0  0  0  0  0  0  0  0  0  0
   -0.8667    1.4742    0.3485 C   0  0  0  0  0  0  0  0  0  0  0  0
   -0.9723    2.6666    0.6233 O   0  0  0  0  0  0  0  0  0  0  0  0
    0.4769    0.8769    0.2034 C   0  0  0  0  0  0  0  0  0  0  0  0
    0.6301   -0.4865   -0.0909 C   0  0  0  0  0  0  0  0  0  0  0  0
   -0.5965   -1.3305   -0.2310 C   0  0  0  0  0  0  0  0  0  0  0  0
   -0.5477   -2.5388   -0.4224 O   0  0  0  0  0  0  0  0  0  0  0  0
    1.9323   -1.0286   -0.2365 C   0  0  0  0  0  0  0  0  0  0  0  0
    3.0485   -0.1938   -0.0757 C   0  0  0  0  0  0  0  0  0  0  0  0
    2.8866    1.1643    0.2248 C   0  0  0  0  0  0  0  0  0  0  0  0
    1.6098    1.6898    0.3598 C   0  0  0  0  0  0  0  0  0  0  0  0
    1.5486    3.0256    0.6483 O   0  0  0  0  0  0  0  0  0  0  0  0
    4.7533   -0.7784   -0.2304 S   0  0  0  0  0  0  0  0  0  0  0  0
    5.2154   -0.0569   -1.4104 O   0  0  0  0  0  0  0  0  0  0  0  0
    5.3357   -0.3721    1.0437 O   0  0  0  0  0  0  0  0  0  0  0  0
    4.5855   -2.2211   -0.4042 O   0  0  0  0  0  0  0  0  0  0  0  0
    2.0409   -2.3542   -0.5483 O   0  0  0  0  0  0  0  0  0  0  0  0
   -5.4643    0.8960    0.1587 H   0  0  0  0  0  0  0  0  0  0  0  0
   -5.2387   -1.5264   -0.3460 H   0  0  0  0  0  0  0  0  0  0  0  0
   -2.9964   -2.5536   -0.5260 H   0  0  0  0  0  0  0  0  0  0  0  0
   -3.4436    2.2874    0.4823 H   0  0  0  0  0  0  0  0  0  0  0  0
    3.7494    1.8177    0.3504 H   0  0  0  0  0  0  0  0  0  0  0  0
    0.6019    3.2892    0.7260 H   0  0  0  0  0  0  0  0  0  0  0  0
    2.9571   -2.6999   -0.5437 H   0  0  0  0  0  0  0  0  0  0  0  0
  2  1  2  0  0  0  0
  3  2  1  0  0  0  0
  4  3  2  0  0  0  0
  5  4  1  0  0  0  0
  6  5  2  0  0  0  0
  6  1  1  0  0  0  0
  7  5  1  0  0  0  0
  8  7  2  0  0  0  0
  9  7  1  0  0  0  0
 10  9  2  0  0  0  0
 11 10  1  0  0  0  0
 11  4  1  0  0  0  0
 12 11  2  0  0  0  0
 13 10  1  0  0  0  0
 14 13  2  0  0  0  0
 15 14  1  0  0  0  0
 16 15  2  0  0  0  0
 16  9  1  0  0  0  0
 17 16  1  0  0  0  0
 18 14  1  0  0  0  0
 19 18  2  0  0  0  0
 20 18  2  0  0  0  0
 21 18  1  0  0  0  0
 22 13  1  0  0  0  0
  1 23  1  0  0  0  0
  2 24  1  0  0  0  0
  3 25  1  0  0  0  0
  6 26  1  0  0  0  0
 15 27  1  0  0  0  0
 17 28  1  0  0  0  0
 22 29  1  0  0  0  0
M  RAD  1  21   2
M  END
>  <energy>
86.624827725076443

$$$$
