N1(C=C[C@@H](C=C1)[C@@H]1C=CN(C=C1)C)CCO
                    3D

 34 35  0  0  0  0  0  0  0  0999 V2000
    2.5064   -0.1644    0.1487 N   0  0  0  0  0  0  0  0  0  0  0  0
    2.1929   -0.8158   -1.0368 C   0  0  0  0  0  0  0  0  0  0  0  0
    1.1389   -1.6312   -1.1786 C   0  0  0  0  0  0  0  0  0  0  0  0
    0.1800   -1.8953   -0.0245 C   0  0  0  0  0  0  0  0  0  0  0  0
    0.5936   -1.1451    1.2327 C   0  0  0  0  0  0  0  0  0  0  0  0
    1.6781   -0.3570    1.2512 C   0  0  0  0  0  0  0  0  0  0  0  0
   -1.2984   -1.6229   -0.4500 C   0  0  0  0  0  0  0  0  0  0  0  0
   -1.6283   -0.1453   -0.6264 C   0  0  0  0  0  0  0  0  0  0  0  0
   -2.6540    0.4218    0.0284 C   0  0  0  0  0  0  0  0  0  0  0  0
   -3.4839   -0.2683    0.9050 N   0  0  0  0  0  0  0  0  0  0  0  0
   -3.2645   -1.6266    1.0932 C   0  0  0  0  0  0  0  0  0  0  0  0
   -2.2741   -2.3071    0.4986 C   0  0  0  0  0  0  0  0  0  0  0  0
   -4.6304    0.4025    1.5210 C   0  0  0  0  0  0  0  0  0  0  0  0
    3.6996    0.7033    0.2391 C   0  0  0  0  0  0  0  0  0  0  0  0
    3.3821    2.1150   -0.2628 C   0  0  0  0  0  0  0  0  0  0  0  0
    2.4034    2.7554    0.5539 O   0  0  0  0  0  0  0  0  0  0  0  0
    2.8719   -0.6267   -1.8642 H   0  0  0  0  0  0  0  0  0  0  0  0
    0.9544   -2.1251   -2.1272 H   0  0  0  0  0  0  0  0  0  0  0  0
    0.2770   -2.9671    0.2061 H   0  0  0  0  0  0  0  0  0  0  0  0
   -0.0210   -1.2533    2.1211 H   0  0  0  0  0  0  0  0  0  0  0  0
    1.9619    0.1903    2.1463 H   0  0  0  0  0  0  0  0  0  0  0  0
   -1.4566   -2.0929   -1.4320 H   0  0  0  0  0  0  0  0  0  0  0  0
   -1.0177    0.4440   -1.3012 H   0  0  0  0  0  0  0  0  0  0  0  0
   -2.8953    1.4733   -0.1012 H   0  0  0  0  0  0  0  0  0  0  0  0
   -3.9617   -2.1201    1.7641 H   0  0  0  0  0  0  0  0  0  0  0  0
   -2.1591   -3.3699    0.6774 H   0  0  0  0  0  0  0  0  0  0  0  0
   -4.3361    1.3735    1.9331 H   0  0  0  0  0  0  0  0  0  0  0  0
   -5.4198    0.5648    0.7788 H   0  0  0  0  0  0  0  0  0  0  0  0
   -5.0541   -0.1852    2.3420 H   0  0  0  0  0  0  0  0  0  0  0  0
    4.0520    0.7461    1.2775 H   0  0  0  0  0  0  0  0  0  0  0  0
    4.5161    0.2752   -0.3574 H   0  0  0  0  0  0  0  0  0  0  0  0
    3.0135    2.0997   -1.2941 H   0  0  0  0  0  0  0  0  0  0  0  0
    4.2863    2.7294   -0.2355 H   0  0  0  0  0  0  0  0  0  0  0  0
    1.6359    2.1511    0.5702 H   0  0  0  0  0  0  0  0  0  0  0  0
  2  1  1  0  0  0  0
  3  2  2  0  0  0  0
  4  3  1  0  0  0  0
  5  4  1  0  0  0  0
  6  5  2  0  0  0  0
  6  1  1  0  0  0  0
  7  4  1  0  0  0  0
  8  7  1  0  0  0  0
  9  8  2  0  0  0  0
 10  9  1  0  0  0  0
 11 10  1  0  0  0  0
 12 11  2  0  0  0  0
 12  7  1  0  0  0  0
 13 10  1  0  0  0  0
 14  1  1  0  0  0  0
 15 14  1  0  0  0  0
 16 15  1  0  0  0  0
  2 17  1  0  0  0  0
  3 18  1  0  0  0  0
  4 19  1  0  0  0  0
  5 20  1  0  0  0  0
  6 21  1  0  0  0  0
  7 22  1  0  0  0  0
  8 23  1  0  0  0  0
  9 24  1  0  0  0  0
 11 25  1  0  0  0  0
 12 26  1  0  0  0  0
 13 27  1  0  0  0  0
 13 28  1  0  0  0  0
 13 29  1  0  0  0  0
 14 30  1  0  0  0  0
 14 31  1  0  0  0  0
 15 32  1  0  0  0  0
 15 33  1  0  0  0  0
 16 34  1  0  0  0  0
M  END
>  <energy>
40.85118140695117

$$$$
N1(C=C[C@@H](C=C1)[C@@H]1C=CN(C=C1)C)CCO
                    3D

 34 35  0  0  0  0  0  0  0  0999 V2000
    1.9765    0.4414    0.1945 N   0  0  0  0  0  0  0  0  0  0  0  0
    1.0529    0.2808   -0.8321 C   0  0  0  0  0  0  0  0  0  0  0  0
    0.1953   -0.7470   -0.9057 C   0  0  0  0  0  0  0  0  0  0  0  0
    0.1592   -1.8247    0.1700 C   0  0  0  0  0  0  0  0  0  0  0  0
    1.2651   -1.6274    1.2002 C   0  0  0  0  0  0  0  0  0  0  0  0
    2.0668   -0.5522    1.1626 C   0  0  0  0  0  0  0  0  0  0  0  0
   -1.2365   -1.9397    0.8640 C   0  0  0  0  0  0  0  0  0  0  0  0
   -2.3030   -2.4296   -0.1093 C   0  0  0  0  0  0  0  0  0  0  0  0
   -3.4369   -1.7388   -0.3095 C   0  0  0  0  0  0  0  0  0  0  0  0
   -3.7358   -0.5507    0.3468 N   0  0  0  0  0  0  0  0  0  0  0  0
   -2.8216   -0.0479    1.2639 C   0  0  0  0  0  0  0  0  0  0  0  0
   -1.6589   -0.6487    1.5555 C   0  0  0  0  0  0  0  0  0  0  0  0
   -4.9493    0.2054    0.0352 C   0  0  0  0  0  0  0  0  0  0  0  0
    2.8402    1.6313    0.2457 C   0  0  0  0  0  0  0  0  0  0  0  0
    4.1233    1.4275   -0.5648 C   0  0  0  0  0  0  0  0  0  0  0  0
    5.0042    2.5395   -0.4241 O   0  0  0  0  0  0  0  0  0  0  0  0
    1.0565    1.0621   -1.5879 H   0  0  0  0  0  0  0  0  0  0  0  0
   -0.5129   -0.8141   -1.7253 H   0  0  0  0  0  0  0  0  0  0  0  0
    0.3746   -2.7792   -0.3344 H   0  0  0  0  0  0  0  0  0  0  0  0
    1.3758   -2.3713    1.9817 H   0  0  0  0  0  0  0  0  0  0  0  0
    2.8406   -0.4016    1.9112 H   0  0  0  0  0  0  0  0  0  0  0  0
   -1.1635   -2.7084    1.6471 H   0  0  0  0  0  0  0  0  0  0  0  0
   -2.1258   -3.3559   -0.6466 H   0  0  0  0  0  0  0  0  0  0  0  0
   -4.1931   -2.0850   -1.0072 H   0  0  0  0  0  0  0  0  0  0  0  0
   -3.1091    0.8844    1.7413 H   0  0  0  0  0  0  0  0  0  0  0  0
   -0.9823   -0.2055    2.2785 H   0  0  0  0  0  0  0  0  0  0  0  0
   -4.6948    1.1019   -0.5408 H   0  0  0  0  0  0  0  0  0  0  0  0
   -5.6586   -0.3852   -0.5549 H   0  0  0  0  0  0  0  0  0  0  0  0
   -5.4588    0.5140    0.9547 H   0  0  0  0  0  0  0  0  0  0  0  0
    2.3047    2.5130   -0.1322 H   0  0  0  0  0  0  0  0  0  0  0  0
    3.0942    1.8746    1.2859 H   0  0  0  0  0  0  0  0  0  0  0  0
    3.8872    1.3212   -1.6292 H   0  0  0  0  0  0  0  0  0  0  0  0
    4.6563    0.5250   -0.2487 H   0  0  0  0  0  0  0  0  0  0  0  0
    5.3800    2.5007    0.4715 H   0  0  0  0  0  0  0  0  0  0  0  0
  2  1  1  0  0  0  0
  3  2  2  0  0  0  0
  4  3  1  0  0  0  0
  5  4  1  0  0  0  0
  6  5  2  0  0  0  0
  6  1  1  0  0  0  0
  7  4  1  0  0  0  0
  8  7  1  0  0  0  0
  9  8  2  0  0  0  0
 10  9  1  0  0  0  0
 11 10  1  0  0  0  0
 12 11  2  0  0  0  0
 12  7  1  0  0  0  0
 13 10  1  0  0  0  0
 14  1  1  0  0  0  0
 15 14  1  0  0  0  0
 16 15  1  0  0  0  0
  2 17  1  0  0  0  0
  3 18  1  0  0  0  0
  4 19  1  0  0  0  0
  5 20  1  0  0  0  0
  6 21  1  0  0  0  0
  7 22  1  0  0  0  0
  8 23  1  0  0  0  0
  9 24  1  0  0  0  0
 11 25  1  0  0  0  0
 12 26  1  0  0  0  0
 13 27  1  0  0  0  0
 13 28  1  0  0  0  0
 13 29  1  0  0  0  0
 14 30  1  0  0  0  0
 14 31  1  0  0  0  0
 15 32  1  0  0  0  0
 15 33  1  0  0  0  0
 16 34  1  0  0  0  0
M  END
>  <energy>
45.642133660728099

$$$$
