c1cc2c(cc1)C(=O)C(=O)C=C2
                    2D

 18 19  0  0  0  0  0  0  0  0999 V2000
   -2.4334    0.7419    0.1608 C   0  0  0  0  0  0  0  0  0  0  0  0
   -1.2045    1.4081    0.1429 C   0  0  0  0  0  0  0  0  0  0  0  0
   -0.0075    0.6875    0.0430 C   0  0  0  0  0  0  0  0  0  0  0  0
   -0.0649   -0.7100   -0.0368 C   0  0  0  0  0  0  0  0  0  0  0  0
   -1.2956   -1.3787   -0.0174 C   0  0  0  0  0  0  0  0  0  0  0  0
   -2.4793   -0.6492    0.0811 C   0  0  0  0  0  0  0  0  0  0  0  0
    1.1886   -1.4852   -0.1430 C   0  0  0  0  0  0  0  0  0  0  0  0
    1.1785   -2.7065   -0.2090 O   0  0  0  0  0  0  0  0  0  0  0  0
    2.5044   -0.7155   -0.1682 C   0  0  0  0  0  0  0  0  0  0  0  0
    3.5808   -1.2869   -0.2623 O   0  0  0  0  0  0  0  0  0  0  0  0
    2.4413    0.7580   -0.0745 C   0  0  0  0  0  0  0  0  0  0  0  0
    1.2717    1.3986    0.0235 C   0  0  0  0  0  0  0  0  0  0  0  0
   -3.3579    1.3106    0.2372 H   0  0  0  0  0  0  0  0  0  0  0  0
   -1.1975    2.4944    0.2071 H   0  0  0  0  0  0  0  0  0  0  0  0
   -1.3336   -2.4650   -0.0796 H   0  0  0  0  0  0  0  0  0  0  0  0
   -3.4365   -1.1656    0.0953 H   0  0  0  0  0  0  0  0  0  0  0  0
    3.3906    1.2803   -0.0909 H   0  0  0  0  0  0  0  0  0  0  0  0
    1.2548    2.4832    0.0908 H   0  0  0  0  0  0  0  0  0  0  0  0
  2  1  2  0  0  0  0
  3  2  1  0  0  0  0
  4  3  2  0  0  0  0
  5  4  1  0  0  0  0
  6  5  2  0  0  0  0
  6  1  1  0  0  0  0
  7  4  1  0  0  0  0
  8  7  2  0  0  0  0
  9  7  1  0  0  0  0
 10  9  2  0  0  0  0
 11  9  1  0  0  0  0
 12 11  2  0  0  0  0
 12  3  1  0  0  0  0
  1 13  1  0  0  0  0
  2 14  1  0  0  0  0
  5 15  1  0  0  0  0
  6 16  1  0  0  0  0
 11 17  1  0  0  0  0
 12 18  1  0  0  0  0
M  END
>  <energy>
69.891053522155602

$$$$
