N1(C=C[C@@H](C=C1)[C@H]1C=CN(C=C1)C)CC(=O)C
                    3D

 35 36  0  0  0  0  0  0  0  0999 V2000
    2.4135    0.0401    1.1695 N   0  0  0  0  0  0  0  0  0  0  0  0
    2.1094    0.4854   -0.1136 C   0  0  0  0  0  0  0  0  0  0  0  0
    1.0745    0.0269   -0.8362 C   0  0  0  0  0  0  0  0  0  0  0  0
    0.1089   -0.9961   -0.2692 C   0  0  0  0  0  0  0  0  0  0  0  0
    0.6084   -1.5468    1.0685 C   0  0  0  0  0  0  0  0  0  0  0  0
    1.6637   -1.0048    1.7007 C   0  0  0  0  0  0  0  0  0  0  0  0
   -1.3358   -0.4206   -0.1108 C   0  0  0  0  0  0  0  0  0  0  0  0
   -1.4166    0.8432    0.7458 C   0  0  0  0  0  0  0  0  0  0  0  0
   -2.0320    1.9495    0.3016 C   0  0  0  0  0  0  0  0  0  0  0  0
   -2.6237    2.0510   -0.9512 N   0  0  0  0  0  0  0  0  0  0  0  0
   -2.6343    0.9300   -1.7741 C   0  0  0  0  0  0  0  0  0  0  0  0
   -2.0470   -0.2343   -1.4510 C   0  0  0  0  0  0  0  0  0  0  0  0
   -3.3386    3.2686   -1.3332 C   0  0  0  0  0  0  0  0  0  0  0  0
    3.4361    0.7313    1.9804 C   0  0  0  0  0  0  0  0  0  0  0  0
    4.6101   -0.1673    2.3335 C   0  0  0  0  0  0  0  0  0  0  0  0
    5.0925   -0.1860    3.4722 O   0  0  0  0  0  0  0  0  0  0  0  0
    5.2415   -0.9572    1.2166 C   0  0  0  0  0  0  0  0  0  0  0  0
    2.7656    1.2542   -0.5096 H   0  0  0  0  0  0  0  0  0  0  0  0
    0.8792    0.4174   -1.8284 H   0  0  0  0  0  0  0  0  0  0  0  0
    0.0793   -1.8549   -0.9655 H   0  0  0  0  0  0  0  0  0  0  0  0
    0.0690   -2.3831    1.5098 H   0  0  0  0  0  0  0  0  0  0  0  0
    1.9893   -1.3728    2.6734 H   0  0  0  0  0  0  0  0  0  0  0  0
   -1.9272   -1.1722    0.4283 H   0  0  0  0  0  0  0  0  0  0  0  0
   -0.9725    0.8261    1.7338 H   0  0  0  0  0  0  0  0  0  0  0  0
   -2.1089    2.8406    0.9180 H   0  0  0  0  0  0  0  0  0  0  0  0
   -3.1734    1.0519   -2.7116 H   0  0  0  0  0  0  0  0  0  0  0  0
   -2.1084   -1.0773   -2.1288 H   0  0  0  0  0  0  0  0  0  0  0  0
   -3.2654    3.4423   -2.4104 H   0  0  0  0  0  0  0  0  0  0  0  0
   -4.3970    3.1872   -1.0645 H   0  0  0  0  0  0  0  0  0  0  0  0
   -2.9242    4.1533   -0.8378 H   0  0  0  0  0  0  0  0  0  0  0  0
    2.9866    1.1050    2.9039 H   0  0  0  0  0  0  0  0  0  0  0  0
    3.8428    1.5974    1.4464 H   0  0  0  0  0  0  0  0  0  0  0  0
    4.5236   -1.6676    0.7931 H   0  0  0  0  0  0  0  0  0  0  0  0
    5.5906   -0.2739    0.4349 H   0  0  0  0  0  0  0  0  0  0  0  0
    6.1000   -1.5105    1.6143 H   0  0  0  0  0  0  0  0  0  0  0  0
  2  1  1  0  0  0  0
  3  2  2  0  0  0  0
  4  3  1  0  0  0  0
  5  4  1  0  0  0  0
  6  5  2  0  0  0  0
  6  1  1  0  0  0  0
  7  4  1  0  0  0  0
  8  7  1  0  0  0  0
  9  8  2  0  0  0  0
 10  9  1  0  0  0  0
 11 10  1  0  0  0  0
 12 11  2  0  0  0  0
 12  7  1  0  0  0  0
 13 10  1  0  0  0  0
 14  1  1  0  0  0  0
 15 14  1  0  0  0  0
 16 15  2  0  0  0  0
 17 15  1  0  0  0  0
  2 18  1  0  0  0  0
  3 19  1  0  0  0  0
  4 20  1  0  0  0  0
  5 21  1  0  0  0  0
  6 22  1  0  0  0  0
  7 23  1  0  0  0  0
  8 24  1  0  0  0  0
  9 25  1  0  0  0  0
 11 26  1  0  0  0  0
 12 27  1  0  0  0  0
 13 28  1  0  0  0  0
 13 29  1  0  0  0  0
 13 30  1  0  0  0  0
 14 31  1  0  0  0  0
 14 32  1  0  0  0  0
 17 33  1  0  0  0  0
 17 34  1  0  0  0  0
 17 35  1  0  0  0  0
M  END
>  <energy>
50.984522929173195

$$$$
N1(C=C[C@@H](C=C1)[C@H]1C=CN(C=C1)C)CC(=O)C
                    3D

 35 36  0  0  0  0  0  0  0  0999 V2000
    2.4139   -1.0317    1.2784 N   0  0  0  0  0  0  0  0  0  0  0  0
    2.5590   -1.1404   -0.1013 C   0  0  0  0  0  0  0  0  0  0  0  0
    1.5335   -1.1042   -0.9628 C   0  0  0  0  0  0  0  0  0  0  0  0
    0.0921   -0.9672   -0.4844 C   0  0  0  0  0  0  0  0  0  0  0  0
    0.0251   -0.8021    1.0287 C   0  0  0  0  0  0  0  0  0  0  0  0
    1.1312   -0.8414    1.7892 C   0  0  0  0  0  0  0  0  0  0  0  0
   -0.6822    0.1260   -1.2868 C   0  0  0  0  0  0  0  0  0  0  0  0
   -2.1843   -0.1304   -1.2399 C   0  0  0  0  0  0  0  0  0  0  0  0
   -3.0385    0.7923   -0.7655 C   0  0  0  0  0  0  0  0  0  0  0  0
   -2.6382    2.0430   -0.3135 N   0  0  0  0  0  0  0  0  0  0  0  0
   -1.2948    2.3834   -0.4119 C   0  0  0  0  0  0  0  0  0  0  0  0
   -0.3462    1.5442   -0.8614 C   0  0  0  0  0  0  0  0  0  0  0  0
   -3.5949    2.9640    0.3051 C   0  0  0  0  0  0  0  0  0  0  0  0
    3.5860   -1.0795    2.1737 C   0  0  0  0  0  0  0  0  0  0  0  0
    4.2091    0.2971    2.3549 C   0  0  0  0  0  0  0  0  0  0  0  0
    4.0643    0.9404    3.3969 O   0  0  0  0  0  0  0  0  0  0  0  0
    5.0954    0.8193    1.2502 C   0  0  0  0  0  0  0  0  0  0  0  0
    3.5796   -1.2641   -0.4517 H   0  0  0  0  0  0  0  0  0  0  0  0
    1.7125   -1.2053   -2.0279 H   0  0  0  0  0  0  0  0  0  0  0  0
   -0.3806   -1.9363   -0.7008 H   0  0  0  0  0  0  0  0  0  0  0  0
   -0.9518   -0.6536    1.4775 H   0  0  0  0  0  0  0  0  0  0  0  0
    1.0691   -0.7336    2.8704 H   0  0  0  0  0  0  0  0  0  0  0  0
   -0.4024    0.0419   -2.3475 H   0  0  0  0  0  0  0  0  0  0  0  0
   -2.5545   -1.0847   -1.5998 H   0  0  0  0  0  0  0  0  0  0  0  0
   -4.1051    0.5939   -0.7145 H   0  0  0  0  0  0  0  0  0  0  0  0
   -1.0464    3.3891   -0.0859 H   0  0  0  0  0  0  0  0  0  0  0  0
    0.6892    1.8586   -0.9078 H   0  0  0  0  0  0  0  0  0  0  0  0
   -3.3080    3.1689    1.3426 H   0  0  0  0  0  0  0  0  0  0  0  0
   -3.6392    3.9136   -0.2434 H   0  0  0  0  0  0  0  0  0  0  0  0
   -4.6090    2.5447    0.3248 H   0  0  0  0  0  0  0  0  0  0  0  0
    4.3503   -1.7684    1.7914 H   0  0  0  0  0  0  0  0  0  0  0  0
    3.3054   -1.4624    3.1628 H   0  0  0  0  0  0  0  0  0  0  0  0
    4.5971    0.7588    0.2824 H   0  0  0  0  0  0  0  0  0  0  0  0
    5.3336    1.8703    1.4393 H   0  0  0  0  0  0  0  0  0  0  0  0
    6.0244    0.2423    1.2336 H   0  0  0  0  0  0  0  0  0  0  0  0
  2  1  1  0  0  0  0
  3  2  2  0  0  0  0
  4  3  1  0  0  0  0
  5  4  1  0  0  0  0
  6  5  2  0  0  0  0
  6  1  1  0  0  0  0
  7  4  1  0  0  0  0
  8  7  1  0  0  0  0
  9  8  2  0  0  0  0
 10  9  1  0  0  0  0
 11 10  1  0  0  0  0
 12 11  2  0  0  0  0
 12  7  1  0  0  0  0
 13 10  1  0  0  0  0
 14  1  1  0  0  0  0
 15 14  1  0  0  0  0
 16 15  2  0  0  0  0
 17 15  1  0  0  0  0
  2 18  1  0  0  0  0
  3 19  1  0  0  0  0
  4 20  1  0  0  0  0
  5 21  1  0  0  0  0
  6 22  1  0  0  0  0
  7 23  1  0  0  0  0
  8 24  1  0  0  0  0
  9 25  1  0  0  0  0
 11 26  1  0  0  0  0
 12 27  1  0  0  0  0
 13 28  1  0  0  0  0
 13 29  1  0  0  0  0
 13 30  1  0  0  0  0
 14 31  1  0  0  0  0
 14 32  1  0  0  0  0
 17 33  1  0  0  0  0
 17 34  1  0  0  0  0
 17 35  1  0  0  0  0
M  END
>  <energy>
52.216096632303717

$$$$
N1(C=C[C@@H](C=C1)[C@H]1C=CN(C=C1)C)CC(=O)C
                    3D

 35 36  0  0  0  0  0  0  0  0999 V2000
    2.2690   -0.0497    1.4421 N   0  0  0  0  0  0  0  0  0  0  0  0
    2.0598    0.5002    0.1805 C   0  0  0  0  0  0  0  0  0  0  0  0
    1.0882    0.0961   -0.6489 C   0  0  0  0  0  0  0  0  0  0  0  0
    0.1030   -0.9858   -0.2425 C   0  0  0  0  0  0  0  0  0  0  0  0
    0.4829   -1.6229    1.0915 C   0  0  0  0  0  0  0  0  0  0  0  0
    1.4943   -1.1366    1.8294 C   0  0  0  0  0  0  0  0  0  0  0  0
   -1.3750   -0.4716   -0.2360 C   0  0  0  0  0  0  0  0  0  0  0  0
   -1.6200    0.6628    0.7528 C   0  0  0  0  0  0  0  0  0  0  0  0
   -2.1797    1.8164    0.3652 C   0  0  0  0  0  0  0  0  0  0  0  0
   -2.5662    2.0809   -0.9419 N   0  0  0  0  0  0  0  0  0  0  0  0
   -2.4004    1.0885   -1.9009 C   0  0  0  0  0  0  0  0  0  0  0  0
   -1.8537   -0.1067   -1.6381 C   0  0  0  0  0  0  0  0  0  0  0  0
   -3.1959    3.3583   -1.2701 C   0  0  0  0  0  0  0  0  0  0  0  0
    3.3194    0.4896    2.3195 C   0  0  0  0  0  0  0  0  0  0  0  0
    4.6826   -0.1129    2.0011 C   0  0  0  0  0  0  0  0  0  0  0  0
    5.2277    0.0008    0.9025 O   0  0  0  0  0  0  0  0  0  0  0  0
    5.3944   -0.7946    3.1434 C   0  0  0  0  0  0  0  0  0  0  0  0
    2.7509    1.2862   -0.1090 H   0  0  0  0  0  0  0  0  0  0  0  0
    0.9748    0.5552   -1.6235 H   0  0  0  0  0  0  0  0  0  0  0  0
    0.1788   -1.7871   -0.9945 H   0  0  0  0  0  0  0  0  0  0  0  0
   -0.0918   -2.4747    1.4360 H   0  0  0  0  0  0  0  0  0  0  0  0
    1.7616   -1.5865    2.7775 H   0  0  0  0  0  0  0  0  0  0  0  0
   -2.0070   -1.3073    0.0964 H   0  0  0  0  0  0  0  0  0  0  0  0
   -1.3334    0.5133    1.7883 H   0  0  0  0  0  0  0  0  0  0  0  0
   -2.3615    2.6195    1.0737 H   0  0  0  0  0  0  0  0  0  0  0  0
   -2.7490    1.3428   -2.8993 H   0  0  0  0  0  0  0  0  0  0  0  0
   -1.7549   -0.8447   -2.4265 H   0  0  0  0  0  0  0  0  0  0  0  0
   -3.2101    3.5397   -2.3491 H   0  0  0  0  0  0  0  0  0  0  0  0
   -4.2279    3.3726   -0.9040 H   0  0  0  0  0  0  0  0  0  0  0  0
   -2.6535    4.1919   -0.8087 H   0  0  0  0  0  0  0  0  0  0  0  0
    3.0702    0.3020    3.3704 H   0  0  0  0  0  0  0  0  0  0  0  0
    3.4002    1.5777    2.2190 H   0  0  0  0  0  0  0  0  0  0  0  0
    4.6878   -1.3995    3.7162 H   0  0  0  0  0  0  0  0  0  0  0  0
    6.1724   -1.4551    2.7536 H   0  0  0  0  0  0  0  0  0  0  0  0
    5.8468   -0.0367    3.7878 H   0  0  0  0  0  0  0  0  0  0  0  0
  2  1  1  0  0  0  0
  3  2  2  0  0  0  0
  4  3  1  0  0  0  0
  5  4  1  0  0  0  0
  6  5  2  0  0  0  0
  6  1  1  0  0  0  0
  7  4  1  0  0  0  0
  8  7  1  0  0  0  0
  9  8  2  0  0  0  0
 10  9  1  0  0  0  0
 11 10  1  0  0  0  0
 12 11  2  0  0  0  0
 12  7  1  0  0  0  0
 13 10  1  0  0  0  0
 14  1  1  0  0  0  0
 15 14  1  0  0  0  0
 16 15  2  0  0  0  0
 17 15  1  0  0  0  0
  2 18  1  0  0  0  0
  3 19  1  0  0  0  0
  4 20  1  0  0  0  0
  5 21  1  0  0  0  0
  6 22  1  0  0  0  0
  7 23  1  0  0  0  0
  8 24  1  0  0  0  0
  9 25  1  0  0  0  0
 11 26  1  0  0  0  0
 12 27  1  0  0  0  0
 13 28  1  0  0  0  0
 13 29  1  0  0  0  0
 13 30  1  0  0  0  0
 14 31  1  0  0  0  0
 14 32  1  0  0  0  0
 17 33  1  0  0  0  0
 17 34  1  0  0  0  0
 17 35  1  0  0  0  0
M  END
>  <energy>
53.979608384819727

$$$$
N1(C=C[C@@H](C=C1)[C@H]1C=CN(C=C1)C)CC(=O)C
                    3D

 35 36  0  0  0  0  0  0  0  0999 V2000
    2.6828   -0.0891    0.7338 N   0  0  0  0  0  0  0  0  0  0  0  0
    2.1152    0.4756   -0.4092 C   0  0  0  0  0  0  0  0  0  0  0  0
    0.9165    0.1290   -0.9051 C   0  0  0  0  0  0  0  0  0  0  0  0
    0.0386   -0.9154   -0.2287 C   0  0  0  0  0  0  0  0  0  0  0  0
    0.7275   -1.4934    1.0023 C   0  0  0  0  0  0  0  0  0  0  0  0
    1.9482   -1.0831    1.3851 C   0  0  0  0  0  0  0  0  0  0  0  0
   -1.4050   -0.3919    0.0895 C   0  0  0  0  0  0  0  0  0  0  0  0
   -1.3995    0.9398    0.8208 C   0  0  0  0  0  0  0  0  0  0  0  0
   -1.9688    2.0261    0.2808 C   0  0  0  0  0  0  0  0  0  0  0  0
   -2.6055    2.0294   -0.9520 N   0  0  0  0  0  0  0  0  0  0  0  0
   -2.7670    0.8249   -1.6219 C   0  0  0  0  0  0  0  0  0  0  0  0
   -2.2428   -0.3321   -1.1877 C   0  0  0  0  0  0  0  0  0  0  0  0
   -3.2478    3.2508   -1.4404 C   0  0  0  0  0  0  0  0  0  0  0  0
    4.1375    0.0915    0.9816 C   0  0  0  0  0  0  0  0  0  0  0  0
    4.5678   -0.2133    2.4154 C   0  0  0  0  0  0  0  0  0  0  0  0
    5.0871   -1.2893    2.7235 O   0  0  0  0  0  0  0  0  0  0  0  0
    4.3458    0.8532    3.4617 C   0  0  0  0  0  0  0  0  0  0  0  0
    2.7159    1.2262   -0.9119 H   0  0  0  0  0  0  0  0  0  0  0  0
    0.5310    0.5940   -1.8070 H   0  0  0  0  0  0  0  0  0  0  0  0
   -0.0696   -1.7603   -0.9316 H   0  0  0  0  0  0  0  0  0  0  0  0
    0.2221   -2.2818    1.5509 H   0  0  0  0  0  0  0  0  0  0  0  0
    2.4323   -1.5494    2.2398 H   0  0  0  0  0  0  0  0  0  0  0  0
   -1.9076   -1.1121    0.7505 H   0  0  0  0  0  0  0  0  0  0  0  0
   -0.9089    0.9905    1.7878 H   0  0  0  0  0  0  0  0  0  0  0  0
   -1.9535    2.9843    0.7938 H   0  0  0  0  0  0  0  0  0  0  0  0
   -3.3599    0.8637   -2.5320 H   0  0  0  0  0  0  0  0  0  0  0  0
   -2.4185   -1.2470   -1.7442 H   0  0  0  0  0  0  0  0  0  0  0  0
   -3.3859    3.2339   -2.5262 H   0  0  0  0  0  0  0  0  0  0  0  0
   -4.2296    3.3752   -0.9698 H   0  0  0  0  0  0  0  0  0  0  0  0
   -2.6364    4.1276   -1.2019 H   0  0  0  0  0  0  0  0  0  0  0  0
    4.4536    1.1155    0.7450 H   0  0  0  0  0  0  0  0  0  0  0  0
    4.6951   -0.5778    0.3145 H   0  0  0  0  0  0  0  0  0  0  0  0
    3.3170    1.2172    3.4466 H   0  0  0  0  0  0  0  0  0  0  0  0
    4.5402    0.4319    4.4557 H   0  0  0  0  0  0  0  0  0  0  0  0
    5.0440    1.6719    3.2813 H   0  0  0  0  0  0  0  0  0  0  0  0
  2  1  1  0  0  0  0
  3  2  2  0  0  0  0
  4  3  1  0  0  0  0
  5  4  1  0  0  0  0
  6  5  2  0  0  0  0
  6  1  1  0  0  0  0
  7  4  1  0  0  0  0
  8  7  1  0  0  0  0
  9  8  2  0  0  0  0
 10  9  1  0  0  0  0
 11 10  1  0  0  0  0
 12 11  2  0  0  0  0
 12  7  1  0  0  0  0
 13 10  1  0  0  0  0
 14  1  1  0  0  0  0
 15 14  1  0  0  0  0
 16 15  2  0  0  0  0
 17 15  1  0  0  0  0
  2 18  1  0  0  0  0
  3 19  1  0  0  0  0
  4 20  1  0  0  0  0
  5 21  1  0  0  0  0
  6 22  1  0  0  0  0
  7 23  1  0  0  0  0
  8 24  1  0  0  0  0
  9 25  1  0  0  0  0
 11 26  1  0  0  0  0
 12 27  1  0  0  0  0
 13 28  1  0  0  0  0
 13 29  1  0  0  0  0
 13 30  1  0  0  0  0
 14 31  1  0  0  0  0
 14 32  1  0  0  0  0
 17 33  1  0  0  0  0
 17 34  1  0  0  0  0
 17 35  1  0  0  0  0
M  END
>  <energy>
54.051605001929602

$$$$
N1(C=C[C@@H](C=C1)[C@H]1C=CN(C=C1)C)CC(=O)C
                    3D

 35 36  0  0  0  0  0  0  0  0999 V2000
    2.2515   -0.2103    1.3507 N   0  0  0  0  0  0  0  0  0  0  0  0
    2.4913   -0.4817    0.0060 C   0  0  0  0  0  0  0  0  0  0  0  0
    1.5436   -0.8994   -0.8464 C   0  0  0  0  0  0  0  0  0  0  0  0
    0.0953   -1.0426   -0.4070 C   0  0  0  0  0  0  0  0  0  0  0  0
   -0.0492   -0.8732    1.0989 C   0  0  0  0  0  0  0  0  0  0  0  0
    0.9817   -0.4733    1.8584 C   0  0  0  0  0  0  0  0  0  0  0  0
   -0.8141   -0.0619   -1.2171 C   0  0  0  0  0  0  0  0  0  0  0  0
   -2.2964   -0.3434   -1.0133 C   0  0  0  0  0  0  0  0  0  0  0  0
   -3.1524    0.6348   -0.6846 C   0  0  0  0  0  0  0  0  0  0  0  0
   -2.7683    1.9520   -0.4774 N   0  0  0  0  0  0  0  0  0  0  0  0
   -1.4330    2.2947   -0.6532 C   0  0  0  0  0  0  0  0  0  0  0  0
   -0.4832    1.4098   -0.9859 C   0  0  0  0  0  0  0  0  0  0  0  0
   -3.7605    2.9833   -0.1773 C   0  0  0  0  0  0  0  0  0  0  0  0
    3.2231    0.5478    2.1627 C   0  0  0  0  0  0  0  0  0  0  0  0
    4.5873   -0.1160    2.2954 C   0  0  0  0  0  0  0  0  0  0  0  0
    4.7895   -1.3284    2.2105 O   0  0  0  0  0  0  0  0  0  0  0  0
    5.7244    0.8207    2.6291 C   0  0  0  0  0  0  0  0  0  0  0  0
    3.5142   -0.3441   -0.3222 H   0  0  0  0  0  0  0  0  0  0  0  0
    1.7882   -1.1094   -1.8820 H   0  0  0  0  0  0  0  0  0  0  0  0
   -0.2067   -2.0729   -0.6476 H   0  0  0  0  0  0  0  0  0  0  0  0
   -1.0200   -1.0542    1.5494 H   0  0  0  0  0  0  0  0  0  0  0  0
    0.8693   -0.3316    2.9297 H   0  0  0  0  0  0  0  0  0  0  0  0
   -0.6235   -0.2444   -2.2842 H   0  0  0  0  0  0  0  0  0  0  0  0
   -2.6627   -1.3511   -1.1752 H   0  0  0  0  0  0  0  0  0  0  0  0
   -4.2133    0.4361   -0.5678 H   0  0  0  0  0  0  0  0  0  0  0  0
   -1.2010    3.3442   -0.5035 H   0  0  0  0  0  0  0  0  0  0  0  0
    0.5462    1.7291   -1.1084 H   0  0  0  0  0  0  0  0  0  0  0  0
   -3.3915    3.6566    0.6027 H   0  0  0  0  0  0  0  0  0  0  0  0
   -3.9751    3.5798   -1.0704 H   0  0  0  0  0  0  0  0  0  0  0  0
   -4.7006    2.5485    0.1821 H   0  0  0  0  0  0  0  0  0  0  0  0
    2.8493    0.7142    3.1808 H   0  0  0  0  0  0  0  0  0  0  0  0
    3.3524    1.5349    1.7009 H   0  0  0  0  0  0  0  0  0  0  0  0
    5.5952    1.1972    3.6454 H   0  0  0  0  0  0  0  0  0  0  0  0
    6.6759    0.2904    2.5584 H   0  0  0  0  0  0  0  0  0  0  0  0
    5.7394    1.6513    1.9193 H   0  0  0  0  0  0  0  0  0  0  0  0
  2  1  1  0  0  0  0
  3  2  2  0  0  0  0
  4  3  1  0  0  0  0
  5  4  1  0  0  0  0
  6  5  2  0  0  0  0
  6  1  1  0  0  0  0
  7  4  1  0  0  0  0
  8  7  1  0  0  0  0
  9  8  2  0  0  0  0
 10  9  1  0  0  0  0
 11 10  1  0  0  0  0
 12 11  2  0  0  0  0
 12  7  1  0  0  0  0
 13 10  1  0  0  0  0
 14  1  1  0  0  0  0
 15 14  1  0  0  0  0
 16 15  2  0  0  0  0
 17 15  1  0  0  0  0
  2 18  1  0  0  0  0
  3 19  1  0  0  0  0
  4 20  1  0  0  0  0
  5 21  1  0  0  0  0
  6 22  1  0  0  0  0
  7 23  1  0  0  0  0
  8 24  1  0  0  0  0
  9 25  1  0  0  0  0
 11 26  1  0  0  0  0
 12 27  1  0  0  0  0
 13 28  1  0  0  0  0
 13 29  1  0  0  0  0
 13 30  1  0  0  0  0
 14 31  1  0  0  0  0
 14 32  1  0  0  0  0
 17 33  1  0  0  0  0
 17 34  1  0  0  0  0
 17 35  1  0  0  0  0
M  END
>  <energy>
56.476046359259371

$$$$
N1(C=C[C@@H](C=C1)[C@H]1C=CN(C=C1)C)CC(=O)C
                    3D

 35 36  0  0  0  0  0  0  0  0999 V2000
    2.4270   -1.1403    1.2335 N   0  0  0  0  0  0  0  0  0  0  0  0
    2.3749   -1.4057   -0.1312 C   0  0  0  0  0  0  0  0  0  0  0  0
    1.2255   -1.6487   -0.7882 C   0  0  0  0  0  0  0  0  0  0  0  0
   -0.1294   -1.5670   -0.0792 C   0  0  0  0  0  0  0  0  0  0  0  0
    0.0519   -1.4713    1.4301 C   0  0  0  0  0  0  0  0  0  0  0  0
    1.2588   -1.2718    1.9760 C   0  0  0  0  0  0  0  0  0  0  0  0
   -1.0881   -0.4684   -0.6994 C   0  0  0  0  0  0  0  0  0  0  0  0
   -2.1876    0.0288    0.2379 C   0  0  0  0  0  0  0  0  0  0  0  0
   -2.4382    1.3412    0.3908 C   0  0  0  0  0  0  0  0  0  0  0  0
   -1.7335    2.3411   -0.2709 N   0  0  0  0  0  0  0  0  0  0  0  0
   -0.7307    1.9671   -1.1535 C   0  0  0  0  0  0  0  0  0  0  0  0
   -0.3775    0.6959   -1.3813 C   0  0  0  0  0  0  0  0  0  0  0  0
   -2.1957    3.7281   -0.2231 C   0  0  0  0  0  0  0  0  0  0  0  0
    3.6296   -0.5486    1.8519 C   0  0  0  0  0  0  0  0  0  0  0  0
    3.6849    0.9589    1.6238 C   0  0  0  0  0  0  0  0  0  0  0  0
    4.7596    1.5292    1.4288 O   0  0  0  0  0  0  0  0  0  0  0  0
    2.3992    1.7444    1.7034 C   0  0  0  0  0  0  0  0  0  0  0  0
    3.3328   -1.4108   -0.6427 H   0  0  0  0  0  0  0  0  0  0  0  0
    1.2414   -1.8704   -1.8496 H   0  0  0  0  0  0  0  0  0  0  0  0
   -0.6187   -2.5379   -0.2527 H   0  0  0  0  0  0  0  0  0  0  0  0
   -0.8214   -1.5801    2.0644 H   0  0  0  0  0  0  0  0  0  0  0  0
    1.3833   -1.1974    3.0564 H   0  0  0  0  0  0  0  0  0  0  0  0
   -1.6226   -0.9789   -1.5143 H   0  0  0  0  0  0  0  0  0  0  0  0
   -2.7897   -0.7007    0.7664 H   0  0  0  0  0  0  0  0  0  0  0  0
   -3.2318    1.6916    1.0423 H   0  0  0  0  0  0  0  0  0  0  0  0
   -0.2363    2.7850   -1.6772 H   0  0  0  0  0  0  0  0  0  0  0  0
    0.3881    0.4865   -2.1189 H   0  0  0  0  0  0  0  0  0  0  0  0
   -1.4291    4.4174   -0.5964 H   0  0  0  0  0  0  0  0  0  0  0  0
   -3.0853    3.8509   -0.8513 H   0  0  0  0  0  0  0  0  0  0  0  0
   -2.4364    4.0384    0.7981 H   0  0  0  0  0  0  0  0  0  0  0  0
    4.5410   -1.0053    1.4396 H   0  0  0  0  0  0  0  0  0  0  0  0
    3.6419   -0.7112    2.9388 H   0  0  0  0  0  0  0  0  0  0  0  0
    1.8015    1.4136    2.5591 H   0  0  0  0  0  0  0  0  0  0  0  0
    2.6327    2.8052    1.8342 H   0  0  0  0  0  0  0  0  0  0  0  0
    1.8328    1.6158    0.7766 H   0  0  0  0  0  0  0  0  0  0  0  0
  2  1  1  0  0  0  0
  3  2  2  0  0  0  0
  4  3  1  0  0  0  0
  5  4  1  0  0  0  0
  6  5  2  0  0  0  0
  6  1  1  0  0  0  0
  7  4  1  0  0  0  0
  8  7  1  0  0  0  0
  9  8  2  0  0  0  0
 10  9  1  0  0  0  0
 11 10  1  0  0  0  0
 12 11  2  0  0  0  0
 12  7  1  0  0  0  0
 13 10  1  0  0  0  0
 14  1  1  0  0  0  0
 15 14  1  0  0  0  0
 16 15  2  0  0  0  0
 17 15  1  0  0  0  0
  2 18  1  0  0  0  0
  3 19  1  0  0  0  0
  4 20  1  0  0  0  0
  5 21  1  0  0  0  0
  6 22  1  0  0  0  0
  7 23  1  0  0  0  0
  8 24  1  0  0  0  0
  9 25  1  0  0  0  0
 11 26  1  0  0  0  0
 12 27  1  0  0  0  0
 13 28  1  0  0  0  0
 13 29  1  0  0  0  0
 13 30  1  0  0  0  0
 14 31  1  0  0  0  0
 14 32  1  0  0  0  0
 17 33  1  0  0  0  0
 17 34  1  0  0  0  0
 17 35  1  0  0  0  0
M  END
>  <energy>
57.733659742023811

$$$$
N1(C=C[C@@H](C=C1)[C@H]1C=CN(C=C1)C)CC(=O)C
                    3D

 35 36  0  0  0  0  0  0  0  0999 V2000
    2.5104   -0.9489    0.8202 N   0  0  0  0  0  0  0  0  0  0  0  0
    2.2205   -1.3449   -0.4805 C   0  0  0  0  0  0  0  0  0  0  0  0
    0.9840   -1.6572   -0.9028 C   0  0  0  0  0  0  0  0  0  0  0  0
   -0.2321   -1.5361    0.0171 C   0  0  0  0  0  0  0  0  0  0  0  0
    0.2109   -1.2825    1.4543 C   0  0  0  0  0  0  0  0  0  0  0  0
    1.4890   -1.0177    1.7651 C   0  0  0  0  0  0  0  0  0  0  0  0
   -1.3535   -0.5511   -0.5189 C   0  0  0  0  0  0  0  0  0  0  0  0
   -2.1769    0.1299    0.5704 C   0  0  0  0  0  0  0  0  0  0  0  0
   -2.3207    1.4630    0.6073 C   0  0  0  0  0  0  0  0  0  0  0  0
   -1.7678    2.3243   -0.3334 N   0  0  0  0  0  0  0  0  0  0  0  0
   -1.0846    1.7747   -1.4050 C   0  0  0  0  0  0  0  0  0  0  0  0
   -0.8663    0.4617   -1.5515 C   0  0  0  0  0  0  0  0  0  0  0  0
   -2.0382    3.7603   -0.2765 C   0  0  0  0  0  0  0  0  0  0  0  0
    3.8735   -0.5275    1.2122 C   0  0  0  0  0  0  0  0  0  0  0  0
    3.8564    0.8166    1.9311 C   0  0  0  0  0  0  0  0  0  0  0  0
    4.4129    0.9650    3.0212 O   0  0  0  0  0  0  0  0  0  0  0  0
    3.2132    1.9835    1.2193 C   0  0  0  0  0  0  0  0  0  0  0  0
    3.0731   -1.3992   -1.1484 H   0  0  0  0  0  0  0  0  0  0  0  0
    0.8267   -1.9827   -1.9251 H   0  0  0  0  0  0  0  0  0  0  0  0
   -0.6918   -2.5342    0.0309 H   0  0  0  0  0  0  0  0  0  0  0  0
   -0.5303   -1.3475    2.2450 H   0  0  0  0  0  0  0  0  0  0  0  0
    1.7937   -0.8470    2.7936 H   0  0  0  0  0  0  0  0  0  0  0  0
   -2.0726   -1.1799   -1.0659 H   0  0  0  0  0  0  0  0  0  0  0  0
   -2.6542   -0.4858    1.3238 H   0  0  0  0  0  0  0  0  0  0  0  0
   -2.8938    1.9499    1.3895 H   0  0  0  0  0  0  0  0  0  0  0  0
   -0.7356    2.4830   -2.1539 H   0  0  0  0  0  0  0  0  0  0  0  0
   -0.3675    0.1039   -2.4443 H   0  0  0  0  0  0  0  0  0  0  0  0
   -1.3650    4.3212   -0.9339 H   0  0  0  0  0  0  0  0  0  0  0  0
   -3.0636    3.9601   -0.5951 H   0  0  0  0  0  0  0  0  0  0  0  0
   -1.8975    4.1469    0.7395 H   0  0  0  0  0  0  0  0  0  0  0  0
    4.5355   -0.4180    0.3454 H   0  0  0  0  0  0  0  0  0  0  0  0
    4.3191   -1.2801    1.8771 H   0  0  0  0  0  0  0  0  0  0  0  0
    3.1877    2.8538    1.8849 H   0  0  0  0  0  0  0  0  0  0  0  0
    3.7997    2.2277    0.3290 H   0  0  0  0  0  0  0  0  0  0  0  0
    2.1867    1.7427    0.9331 H   0  0  0  0  0  0  0  0  0  0  0  0
  2  1  1  0  0  0  0
  3  2  2  0  0  0  0
  4  3  1  0  0  0  0
  5  4  1  0  0  0  0
  6  5  2  0  0  0  0
  6  1  1  0  0  0  0
  7  4  1  0  0  0  0
  8  7  1  0  0  0  0
  9  8  2  0  0  0  0
 10  9  1  0  0  0  0
 11 10  1  0  0  0  0
 12 11  2  0  0  0  0
 12  7  1  0  0  0  0
 13 10  1  0  0  0  0
 14  1  1  0  0  0  0
 15 14  1  0  0  0  0
 16 15  2  0  0  0  0
 17 15  1  0  0  0  0
  2 18  1  0  0  0  0
  3 19  1  0  0  0  0
  4 20  1  0  0  0  0
  5 21  1  0  0  0  0
  6 22  1  0  0  0  0
  7 23  1  0  0  0  0
  8 24  1  0  0  0  0
  9 25  1  0  0  0  0
 11 26  1  0  0  0  0
 12 27  1  0  0  0  0
 13 28  1  0  0  0  0
 13 29  1  0  0  0  0
 13 30  1  0  0  0  0
 14 31  1  0  0  0  0
 14 32  1  0  0  0  0
 17 33  1  0  0  0  0
 17 34  1  0  0  0  0
 17 35  1  0  0  0  0
M  END
>  <energy>
58.344554519431419

$$$$
