c1c(cc2c(c1)C(=O)C=CC2=O)CCl
                    3D

 21 22  0  0  0  0  0  0  0  0999 V2000
    1.8444   -0.6780    0.5828 C   0  0  0  0  0  0  0  0  0  0  0  0
    1.7821    0.6603    0.1650 C   0  0  0  0  0  0  0  0  0  0  0  0
    0.5415    1.1970   -0.2148 C   0  0  0  0  0  0  0  0  0  0  0  0
   -0.6173    0.4090   -0.1687 C   0  0  0  0  0  0  0  0  0  0  0  0
   -0.5433   -0.9174    0.2552 C   0  0  0  0  0  0  0  0  0  0  0  0
    0.6890   -1.4622    0.6323 C   0  0  0  0  0  0  0  0  0  0  0  0
   -1.7563   -1.7574    0.3023 C   0  0  0  0  0  0  0  0  0  0  0  0
   -1.7245   -2.9197    0.6849 O   0  0  0  0  0  0  0  0  0  0  0  0
   -3.0301   -1.1516   -0.1318 C   0  0  0  0  0  0  0  0  0  0  0  0
   -3.1020    0.1182   -0.5376 C   0  0  0  0  0  0  0  0  0  0  0  0
   -1.9121    0.9914   -0.5740 C   0  0  0  0  0  0  0  0  0  0  0  0
   -2.0126    2.1578   -0.9308 O   0  0  0  0  0  0  0  0  0  0  0  0
    3.0324    1.4945    0.0835 C   0  0  0  0  0  0  0  0  0  0  0  0
    3.7793    1.3232   -1.5173 Cl  0  0  0  0  0  0  0  0  0  0  0  0
    2.7980   -1.1236    0.8629 H   0  0  0  0  0  0  0  0  0  0  0  0
    0.4769    2.2292   -0.5587 H   0  0  0  0  0  0  0  0  0  0  0  0
    0.7550   -2.4994    0.9580 H   0  0  0  0  0  0  0  0  0  0  0  0
   -3.9021   -1.7949   -0.1012 H   0  0  0  0  0  0  0  0  0  0  0  0
   -4.0367    0.5658   -0.8557 H   0  0  0  0  0  0  0  0  0  0  0  0
    3.7605    1.1824    0.8395 H   0  0  0  0  0  0  0  0  0  0  0  0
    2.8119    2.5538    0.2524 H   0  0  0  0  0  0  0  0  0  0  0  0
  2  1  2  0  0  0  0
  3  2  1  0  0  0  0
  4  3  2  0  0  0  0
  5  4  1  0  0  0  0
  6  5  2  0  0  0  0
  6  1  1  0  0  0  0
  7  5  1  0  0  0  0
  8  7  2  0  0  0  0
  9  7  1  0  0  0  0
 10  9  2  0  0  0  0
 11 10  1  0  0  0  0
 11  4  1  0  0  0  0
 12 11  2  0  0  0  0
 13  2  1  0  0  0  0
 14 13  1  0  0  0  0
  1 15  1  0  0  0  0
  3 16  1  0  0  0  0
  6 17  1  0  0  0  0
  9 18  1  0  0  0  0
 10 19  1  0  0  0  0
 13 20  1  0  0  0  0
 13 21  1  0  0  0  0
M  END
>  <energy>
43.336531898288669

$$$$
