c1cc2c(cc1)C(=O)C=CC2=O
                    2D

 18 19  0  0  0  0  0  0  0  0999 V2000
   -2.4703    0.6525    0.0615 C   0  0  0  0  0  0  0  0  0  0  0  0
   -1.3311    1.2158   -0.5165 C   0  0  0  0  0  0  0  0  0  0  0  0
   -0.0866    0.5925   -0.3599 C   0  0  0  0  0  0  0  0  0  0  0  0
    0.0134   -0.5903    0.3736 C   0  0  0  0  0  0  0  0  0  0  0  0
   -1.1306   -1.1529    0.9534 C   0  0  0  0  0  0  0  0  0  0  0  0
   -2.3701   -0.5299    0.7955 C   0  0  0  0  0  0  0  0  0  0  0  0
    1.3198   -1.2568    0.5435 C   0  0  0  0  0  0  0  0  0  0  0  0
    1.4397   -2.2961    1.1787 O   0  0  0  0  0  0  0  0  0  0  0  0
    2.4992   -0.6277   -0.0830 C   0  0  0  0  0  0  0  0  0  0  0  0
    2.4036    0.5045   -0.7836 C   0  0  0  0  0  0  0  0  0  0  0  0
    1.1128    1.1945   -0.9751 C   0  0  0  0  0  0  0  0  0  0  0  0
    1.0575    2.2300   -1.6253 O   0  0  0  0  0  0  0  0  0  0  0  0
   -3.4369    1.1365   -0.0614 H   0  0  0  0  0  0  0  0  0  0  0  0
   -1.4163    2.1388   -1.0875 H   0  0  0  0  0  0  0  0  0  0  0  0
   -1.0598   -2.0754    1.5273 H   0  0  0  0  0  0  0  0  0  0  0  0
   -3.2587   -0.9677    1.2455 H   0  0  0  0  0  0  0  0  0  0  0  0
    3.4459   -1.1365    0.0577 H   0  0  0  0  0  0  0  0  0  0  0  0
    3.2684    0.9682   -1.2442 H   0  0  0  0  0  0  0  0  0  0  0  0
  2  1  2  0  0  0  0
  3  2  1  0  0  0  0
  4  3  2  0  0  0  0
  5  4  1  0  0  0  0
  6  5  2  0  0  0  0
  6  1  1  0  0  0  0
  7  4  1  0  0  0  0
  8  7  2  0  0  0  0
  9  7  1  0  0  0  0
 10  9  2  0  0  0  0
 11 10  1  0  0  0  0
 11  3  1  0  0  0  0
 12 11  2  0  0  0  0
  1 13  1  0  0  0  0
  2 14  1  0  0  0  0
  5 15  1  0  0  0  0
  6 16  1  0  0  0  0
  9 17  1  0  0  0  0
 10 18  1  0  0  0  0
M  END
>  <energy>
34.34528262821641

$$$$
