C1=C[C@H]2C(=CN1C)[C@H]1C(=CC=CN1C)C=C2
                    3D

 32 34  0  0  0  0  0  0  0  0999 V2000
    1.8318    2.6314   -0.0656 C   0  0  0  0  0  0  0  0  0  0  0  0
    2.0194    1.7907    0.9616 C   0  0  0  0  0  0  0  0  0  0  0  0
    1.1998    0.5193    1.1034 C   0  0  0  0  0  0  0  0  0  0  0  0
    0.2264    0.3233   -0.0456 C   0  0  0  0  0  0  0  0  0  0  0  0
    0.1558    1.2409   -1.0314 C   0  0  0  0  0  0  0  0  0  0  0  0
    0.9004    2.4127   -1.0700 N   0  0  0  0  0  0  0  0  0  0  0  0
    0.8839    3.2495   -2.2687 C   0  0  0  0  0  0  0  0  0  0  0  0
   -0.4601   -1.0144   -0.1539 C   0  0  0  0  0  0  0  0  0  0  0  0
    0.3031   -2.1523    0.5441 C   0  0  0  0  0  0  0  0  0  0  0  0
   -0.3296   -3.2978    0.8655 C   0  0  0  0  0  0  0  0  0  0  0  0
   -1.7658   -3.3890    0.7028 C   0  0  0  0  0  0  0  0  0  0  0  0
   -2.4733   -2.2704    0.4851 C   0  0  0  0  0  0  0  0  0  0  0  0
   -1.8840   -1.0151    0.2986 N   0  0  0  0  0  0  0  0  0  0  0  0
   -2.7215    0.1130   -0.1124 C   0  0  0  0  0  0  0  0  0  0  0  0
    1.6757   -1.9293    0.9563 C   0  0  0  0  0  0  0  0  0  0  0  0
    2.1032   -0.6895    1.2386 C   0  0  0  0  0  0  0  0  0  0  0  0
    2.4163    3.5433   -0.1634 H   0  0  0  0  0  0  0  0  0  0  0  0
    2.7529    2.0178    1.7284 H   0  0  0  0  0  0  0  0  0  0  0  0
    0.6246    0.6178    2.0353 H   0  0  0  0  0  0  0  0  0  0  0  0
   -0.4886    1.0910   -1.8921 H   0  0  0  0  0  0  0  0  0  0  0  0
    1.6334    2.8914   -2.9827 H   0  0  0  0  0  0  0  0  0  0  0  0
   -0.0962    3.2197   -2.7541 H   0  0  0  0  0  0  0  0  0  0  0  0
    1.1061    4.2937   -2.0278 H   0  0  0  0  0  0  0  0  0  0  0  0
   -0.4652   -1.2830   -1.2220 H   0  0  0  0  0  0  0  0  0  0  0  0
    0.1745   -4.1223    1.3577 H   0  0  0  0  0  0  0  0  0  0  0  0
   -2.2529   -4.3458    0.8534 H   0  0  0  0  0  0  0  0  0  0  0  0
   -3.5603   -2.2862    0.4440 H   0  0  0  0  0  0  0  0  0  0  0  0
   -2.8413    0.1263   -1.2017 H   0  0  0  0  0  0  0  0  0  0  0  0
   -2.2972    1.0668    0.2151 H   0  0  0  0  0  0  0  0  0  0  0  0
   -3.7180    0.0454    0.3407 H   0  0  0  0  0  0  0  0  0  0  0  0
    2.3122   -2.7890    1.1492 H   0  0  0  0  0  0  0  0  0  0  0  0
    3.0965   -0.5548    1.6572 H   0  0  0  0  0  0  0  0  0  0  0  0
  2  1  2  0  0  0  0
  3  2  1  0  0  0  0
  4  3  1  0  0  0  0
  5  4  2  0  0  0  0
  6  5  1  0  0  0  0
  6  1  1  0  0  0  0
  7  6  1  0  0  0  0
  8  4  1  0  0  0  0
  9  8  1  0  0  0  0
 10  9  2  0  0  0  0
 11 10  1  0  0  0  0
 12 11  2  0  0  0  0
 13 12  1  0  0  0  0
 13  8  1  0  0  0  0
 14 13  1  0  0  0  0
 15  9  1  0  0  0  0
 16 15  2  0  0  0  0
 16  3  1  0  0  0  0
  1 17  1  0  0  0  0
  2 18  1  0  0  0  0
  3 19  1  0  0  0  0
  5 20  1  0  0  0  0
  7 21  1  0  0  0  0
  7 22  1  0  0  0  0
  7 23  1  0  0  0  0
  8 24  1  0  0  0  0
 10 25  1  0  0  0  0
 11 26  1  0  0  0  0
 12 27  1  0  0  0  0
 14 28  1  0  0  0  0
 14 29  1  0  0  0  0
 14 30  1  0  0  0  0
 15 31  1  0  0  0  0
 16 32  1  0  0  0  0
M  END
>  <energy>
29.05220272420603

$$$$
