c1ccc2c(c1)C(=O)C(=CC2=O)CO
                    3D

 22 23  0  0  0  0  0  0  0  0999 V2000
   -3.0983    1.1875   -0.2724 C   0  0  0  0  0  0  0  0  0  0  0  0
   -3.4699   -0.0744    0.1900 C   0  0  0  0  0  0  0  0  0  0  0  0
   -2.4946   -1.0378    0.4497 C   0  0  0  0  0  0  0  0  0  0  0  0
   -1.1415   -0.7360    0.2463 C   0  0  0  0  0  0  0  0  0  0  0  0
   -0.7675    0.5240   -0.2160 C   0  0  0  0  0  0  0  0  0  0  0  0
   -1.7497    1.4889   -0.4769 C   0  0  0  0  0  0  0  0  0  0  0  0
    0.6559    0.8542   -0.4319 C   0  0  0  0  0  0  0  0  0  0  0  0
    0.9866    1.9516   -0.8666 O   0  0  0  0  0  0  0  0  0  0  0  0
    1.6756   -0.1782   -0.1052 C   0  0  0  0  0  0  0  0  0  0  0  0
    1.2938   -1.3842    0.3380 C   0  0  0  0  0  0  0  0  0  0  0  0
   -0.1191   -1.7566    0.5298 C   0  0  0  0  0  0  0  0  0  0  0  0
   -0.4196   -2.8788    0.9157 O   0  0  0  0  0  0  0  0  0  0  0  0
    3.0965    0.2541   -0.3162 C   0  0  0  0  0  0  0  0  0  0  0  0
    4.0049   -0.7747    0.0624 O   0  0  0  0  0  0  0  0  0  0  0  0
   -3.8591    1.9391   -0.4715 H   0  0  0  0  0  0  0  0  0  0  0  0
   -4.5199   -0.3090    0.3506 H   0  0  0  0  0  0  0  0  0  0  0  0
   -2.7899   -2.0204    0.8135 H   0  0  0  0  0  0  0  0  0  0  0  0
   -1.4689    2.4777   -0.8361 H   0  0  0  0  0  0  0  0  0  0  0  0
    2.0138   -2.1602    0.5784 H   0  0  0  0  0  0  0  0  0  0  0  0
    3.2699    0.4879   -1.3717 H   0  0  0  0  0  0  0  0  0  0  0  0
    3.3210    1.1384    0.2890 H   0  0  0  0  0  0  0  0  0  0  0  0
    4.8993   -0.4221   -0.0889 H   0  0  0  0  0  0  0  0  0  0  0  0
  2  1  2  0  0  0  0
  3  2  1  0  0  0  0
  4  3  2  0  0  0  0
  5  4  1  0  0  0  0
  6  5  2  0  0  0  0
  6  1  1  0  0  0  0
  7  5  1  0  0  0  0
  8  7  2  0  0  0  0
  9  7  1  0  0  0  0
 10  9  2  0  0  0  0
 11 10  1  0  0  0  0
 11  4  1  0  0  0  0
 12 11  2  0  0  0  0
 13  9  1  0  0  0  0
 14 13  1  0  0  0  0
  1 15  1  0  0  0  0
  2 16  1  0  0  0  0
  3 17  1  0  0  0  0
  6 18  1  0  0  0  0
 10 19  1  0  0  0  0
 13 20  1  0  0  0  0
 13 21  1  0  0  0  0
 14 22  1  0  0  0  0
M  END
>  <energy>
23.410917672088811

$$$$
