c1ccc2c(c1)N(c1c(S2)cccc1)C
                    3D

 26 28  0  0  0  0  0  0  0  0999 V2000
   -3.5453    0.9852   -0.4240 C   0  0  0  0  0  0  0  0  0  0  0  0
   -3.9293   -0.2173    0.1512 C   0  0  0  0  0  0  0  0  0  0  0  0
   -2.9555   -1.0798    0.6465 C   0  0  0  0  0  0  0  0  0  0  0  0
   -1.5915   -0.7441    0.5751 C   0  0  0  0  0  0  0  0  0  0  0  0
   -1.1794    0.4827    0.0154 C   0  0  0  0  0  0  0  0  0  0  0  0
   -2.1901    1.3258   -0.4935 C   0  0  0  0  0  0  0  0  0  0  0  0
    0.1919    0.8309   -0.0663 N   0  0  0  0  0  0  0  0  0  0  0  0
    1.2687   -0.0877    0.0062 C   0  0  0  0  0  0  0  0  0  0  0  0
    1.1011   -1.3701    0.5673 C   0  0  0  0  0  0  0  0  0  0  0  0
   -0.4442   -1.9218    1.2648 S   0  0  0  0  0  0  0  0  0  0  0  0
    2.1777   -2.2730    0.6320 C   0  0  0  0  0  0  0  0  0  0  0  0
    3.4278   -1.9299    0.1252 C   0  0  0  0  0  0  0  0  0  0  0  0
    3.6092   -0.6823   -0.4533 C   0  0  0  0  0  0  0  0  0  0  0  0
    2.5434    0.2221   -0.5141 C   0  0  0  0  0  0  0  0  0  0  0  0
    0.5233    2.2511   -0.2096 C   0  0  0  0  0  0  0  0  0  0  0  0
   -4.2954    1.6606   -0.8275 H   0  0  0  0  0  0  0  0  0  0  0  0
   -4.9799   -0.4885    0.2094 H   0  0  0  0  0  0  0  0  0  0  0  0
   -3.2649   -2.0229    1.0919 H   0  0  0  0  0  0  0  0  0  0  0  0
   -1.9409    2.2624   -0.9842 H   0  0  0  0  0  0  0  0  0  0  0  0
    2.0429   -3.2550    1.0803 H   0  0  0  0  0  0  0  0  0  0  0  0
    4.2509   -2.6374    0.1766 H   0  0  0  0  0  0  0  0  0  0  0  0
    4.5769   -0.4085   -0.8663 H   0  0  0  0  0  0  0  0  0  0  0  0
    2.7286    1.1717   -1.0074 H   0  0  0  0  0  0  0  0  0  0  0  0
    0.5902    2.5269   -1.2678 H   0  0  0  0  0  0  0  0  0  0  0  0
   -0.2140    2.8994    0.2789 H   0  0  0  0  0  0  0  0  0  0  0  0
    1.4697    2.5050    0.2828 H   0  0  0  0  0  0  0  0  0  0  0  0
  2  1  2  0  0  0  0
  3  2  1  0  0  0  0
  4  3  2  0  0  0  0
  5  4  1  0  0  0  0
  6  5  2  0  0  0  0
  6  1  1  0  0  0  0
  7  5  1  0  0  0  0
  8  7  1  0  0  0  0
  9  8  2  0  0  0  0
 10  9  1  0  0  0  0
 10  4  1  0  0  0  0
 11  9  1  0  0  0  0
 12 11  2  0  0  0  0
 13 12  1  0  0  0  0
 14 13  2  0  0  0  0
 14  8  1  0  0  0  0
 15  7  1  0  0  0  0
  1 16  1  0  0  0  0
  2 17  1  0  0  0  0
  3 18  1  0  0  0  0
  6 19  1  0  0  0  0
 11 20  1  0  0  0  0
 12 21  1  0  0  0  0
 13 22  1  0  0  0  0
 14 23  1  0  0  0  0
 15 24  1  0  0  0  0
 15 25  1  0  0  0  0
 15 26  1  0  0  0  0
M  END
>  <energy>
64.5280282405581

$$$$
