c1ccc2c(c1)C(=O)C(=CC2=O)C
                    3D

 21 22  0  0  0  0  0  0  0  0999 V2000
   -3.0260    0.5830    0.2677 C   0  0  0  0  0  0  0  0  0  0  0  0
   -3.1125   -0.7573   -0.1086 C   0  0  0  0  0  0  0  0  0  0  0  0
   -1.9504   -1.4888   -0.3593 C   0  0  0  0  0  0  0  0  0  0  0  0
   -0.6968   -0.8766   -0.2318 C   0  0  0  0  0  0  0  0  0  0  0  0
   -0.6083    0.4621    0.1457 C   0  0  0  0  0  0  0  0  0  0  0  0
   -1.7771    1.1941    0.3953 C   0  0  0  0  0  0  0  0  0  0  0  0
    0.7071    1.1190    0.2881 C   0  0  0  0  0  0  0  0  0  0  0  0
    0.7882    2.2970    0.6158 O   0  0  0  0  0  0  0  0  0  0  0  0
    1.9265    0.3083    0.0236 C   0  0  0  0  0  0  0  0  0  0  0  0
    1.8235   -0.9759   -0.3413 C   0  0  0  0  0  0  0  0  0  0  0  0
    0.5242   -1.6567   -0.4988 C   0  0  0  0  0  0  0  0  0  0  0  0
    0.4809   -2.8316   -0.8398 O   0  0  0  0  0  0  0  0  0  0  0  0
    3.2402    1.0070    0.1892 C   0  0  0  0  0  0  0  0  0  0  0  0
   -3.9318    1.1532    0.4626 H   0  0  0  0  0  0  0  0  0  0  0  0
   -4.0856   -1.2337   -0.2071 H   0  0  0  0  0  0  0  0  0  0  0  0
   -2.0245   -2.5347   -0.6526 H   0  0  0  0  0  0  0  0  0  0  0  0
   -1.7183    2.2407    0.6902 H   0  0  0  0  0  0  0  0  0  0  0  0
    2.6952   -1.5899   -0.5418 H   0  0  0  0  0  0  0  0  0  0  0  0
    3.3529    1.3739    1.2148 H   0  0  0  0  0  0  0  0  0  0  0  0
    4.0851    0.3419   -0.0191 H   0  0  0  0  0  0  0  0  0  0  0  0
    3.3114    1.8580   -0.4962 H   0  0  0  0  0  0  0  0  0  0  0  0
  2  1  2  0  0  0  0
  3  2  1  0  0  0  0
  4  3  2  0  0  0  0
  5  4  1  0  0  0  0
  6  5  2  0  0  0  0
  6  1  1  0  0  0  0
  7  5  1  0  0  0  0
  8  7  2  0  0  0  0
  9  7  1  0  0  0  0
 10  9  2  0  0  0  0
 11 10  1  0  0  0  0
 11  4  1  0  0  0  0
 12 11  2  0  0  0  0
 13  9  1  0  0  0  0
  1 14  1  0  0  0  0
  2 15  1  0  0  0  0
  3 16  1  0  0  0  0
  6 17  1  0  0  0  0
 10 18  1  0  0  0  0
 13 19  1  0  0  0  0
 13 20  1  0  0  0  0
 13 21  1  0  0  0  0
M  END
>  <energy>
35.208584066674177

$$$$
