N1(C=C[C@H](C=C1)[C@H]1C=CN(C=C1)C)CC(=O)N
                    3D

 34 35  0  0  0  0  0  0  0  0999 V2000
    1.8027   -0.2538    2.5893 N   0  0  0  0  0  0  0  0  0  0  0  0
    1.3806    0.9918    2.1327 C   0  0  0  0  0  0  0  0  0  0  0  0
    0.2181    1.1920    1.4935 C   0  0  0  0  0  0  0  0  0  0  0  0
   -0.7664    0.0545    1.2623 C   0  0  0  0  0  0  0  0  0  0  0  0
   -0.2343   -1.2665    1.8083 C   0  0  0  0  0  0  0  0  0  0  0  0
    0.9621   -1.3451    2.4112 C   0  0  0  0  0  0  0  0  0  0  0  0
   -1.2563   -0.0794   -0.2178 C   0  0  0  0  0  0  0  0  0  0  0  0
   -2.0540    1.1456   -0.6534 C   0  0  0  0  0  0  0  0  0  0  0  0
   -1.7575    1.8013   -1.7844 C   0  0  0  0  0  0  0  0  0  0  0  0
   -0.7290    1.4297   -2.6407 N   0  0  0  0  0  0  0  0  0  0  0  0
    0.0314    0.3125   -2.3226 C   0  0  0  0  0  0  0  0  0  0  0  0
   -0.1542   -0.4169   -1.2108 C   0  0  0  0  0  0  0  0  0  0  0  0
   -0.5057    2.1649   -3.8880 C   0  0  0  0  0  0  0  0  0  0  0  0
    3.1178   -0.4089    3.2591 C   0  0  0  0  0  0  0  0  0  0  0  0
    4.2724   -0.1783    2.2836 C   0  0  0  0  0  0  0  0  0  0  0  0
    5.3645    0.2655    2.6224 O   0  0  0  0  0  0  0  0  0  0  0  0
    4.0392   -0.5462    0.9848 N   0  0  0  0  0  0  0  0  0  0  0  0
    2.0665    1.8131    2.3264 H   0  0  0  0  0  0  0  0  0  0  0  0
   -0.0534    2.1862    1.1533 H   0  0  0  0  0  0  0  0  0  0  0  0
   -1.6519    0.2934    1.8703 H   0  0  0  0  0  0  0  0  0  0  0  0
   -0.8590   -2.1491    1.7237 H   0  0  0  0  0  0  0  0  0  0  0  0
    1.3316   -2.2840    2.8097 H   0  0  0  0  0  0  0  0  0  0  0  0
   -1.9631   -0.9222   -0.2495 H   0  0  0  0  0  0  0  0  0  0  0  0
   -2.8779    1.4796   -0.0296 H   0  0  0  0  0  0  0  0  0  0  0  0
   -2.3254    2.6709   -2.0985 H   0  0  0  0  0  0  0  0  0  0  0  0
    0.7943    0.0484   -3.0474 H   0  0  0  0  0  0  0  0  0  0  0  0
    0.4593   -1.2915   -1.0246 H   0  0  0  0  0  0  0  0  0  0  0  0
   -1.3152    1.9570   -4.5955 H   0  0  0  0  0  0  0  0  0  0  0  0
   -0.4788    3.2426   -3.6961 H   0  0  0  0  0  0  0  0  0  0  0  0
    0.4420    1.8902   -4.3633 H   0  0  0  0  0  0  0  0  0  0  0  0
    3.1943    0.3082    4.0834 H   0  0  0  0  0  0  0  0  0  0  0  0
    3.2347   -1.4158    3.6736 H   0  0  0  0  0  0  0  0  0  0  0  0
    4.7342   -0.2633    0.3079 H   0  0  0  0  0  0  0  0  0  0  0  0
    3.0671   -0.5443    0.6843 H   0  0  0  0  0  0  0  0  0  0  0  0
  2  1  1  0  0  0  0
  3  2  2  0  0  0  0
  4  3  1  0  0  0  0
  5  4  1  0  0  0  0
  6  5  2  0  0  0  0
  6  1  1  0  0  0  0
  7  4  1  0  0  0  0
  8  7  1  0  0  0  0
  9  8  2  0  0  0  0
 10  9  1  0  0  0  0
 11 10  1  0  0  0  0
 12 11  2  0  0  0  0
 12  7  1  0  0  0  0
 13 10  1  0  0  0  0
 14  1  1  0  0  0  0
 15 14  1  0  0  0  0
 16 15  2  0  0  0  0
 17 15  1  0  0  0  0
  2 18  1  0  0  0  0
  3 19  1  0  0  0  0
  4 20  1  0  0  0  0
  5 21  1  0  0  0  0
  6 22  1  0  0  0  0
  7 23  1  0  0  0  0
  8 24  1  0  0  0  0
  9 25  1  0  0  0  0
 11 26  1  0  0  0  0
 12 27  1  0  0  0  0
 13 28  1  0  0  0  0
 13 29  1  0  0  0  0
 13 30  1  0  0  0  0
 14 31  1  0  0  0  0
 14 32  1  0  0  0  0
 17 33  1  0  0  0  0
 17 34  1  0  0  0  0
M  END
>  <energy>
37.805904749248334

$$$$
N1(C=C[C@H](C=C1)[C@H]1C=CN(C=C1)C)CC(=O)N
                    3D

 34 35  0  0  0  0  0  0  0  0999 V2000
    2.3002   -0.1198    1.6046 N   0  0  0  0  0  0  0  0  0  0  0  0
    1.6295    0.9059    2.2668 C   0  0  0  0  0  0  0  0  0  0  0  0
    0.3084    1.1082    2.1586 C   0  0  0  0  0  0  0  0  0  0  0  0
   -0.5450    0.2766    1.2085 C   0  0  0  0  0  0  0  0  0  0  0  0
    0.2323   -0.9081    0.6579 C   0  0  0  0  0  0  0  0  0  0  0  0
    1.5538   -1.0274    0.8617 C   0  0  0  0  0  0  0  0  0  0  0  0
   -1.1565    1.1833    0.0881 C   0  0  0  0  0  0  0  0  0  0  0  0
   -0.1085    1.7499   -0.8565 C   0  0  0  0  0  0  0  0  0  0  0  0
   -0.2047    1.5929   -2.1842 C   0  0  0  0  0  0  0  0  0  0  0  0
   -1.2431    0.9049   -2.8031 N   0  0  0  0  0  0  0  0  0  0  0  0
   -2.2602    0.3878   -2.0109 C   0  0  0  0  0  0  0  0  0  0  0  0
   -2.2740    0.4804   -0.6714 C   0  0  0  0  0  0  0  0  0  0  0  0
   -1.3365    0.8743   -4.2633 C   0  0  0  0  0  0  0  0  0  0  0  0
    3.7789   -0.2207    1.6740 C   0  0  0  0  0  0  0  0  0  0  0  0
    4.2719   -0.6262    3.0695 C   0  0  0  0  0  0  0  0  0  0  0  0
    5.4202   -0.4367    3.4569 O   0  0  0  0  0  0  0  0  0  0  0  0
    3.3647   -1.2626    3.8721 N   0  0  0  0  0  0  0  0  0  0  0  0
    2.2559    1.5333    2.8950 H   0  0  0  0  0  0  0  0  0  0  0  0
   -0.1764    1.8954    2.7243 H   0  0  0  0  0  0  0  0  0  0  0  0
   -1.3664   -0.1386    1.8109 H   0  0  0  0  0  0  0  0  0  0  0  0
   -0.3069   -1.6452    0.0706 H   0  0  0  0  0  0  0  0  0  0  0  0
    2.1098   -1.8594    0.4391 H   0  0  0  0  0  0  0  0  0  0  0  0
   -1.6295    2.0451    0.5776 H   0  0  0  0  0  0  0  0  0  0  0  0
    0.7311    2.2910   -0.4379 H   0  0  0  0  0  0  0  0  0  0  0  0
    0.5354    2.0153   -2.8566 H   0  0  0  0  0  0  0  0  0  0  0  0
   -3.0659   -0.0961   -2.5568 H   0  0  0  0  0  0  0  0  0  0  0  0
   -3.1023    0.0763   -0.1004 H   0  0  0  0  0  0  0  0  0  0  0  0
   -1.7192    1.8323   -4.6308 H   0  0  0  0  0  0  0  0  0  0  0  0
   -0.3567    0.6959   -4.7188 H   0  0  0  0  0  0  0  0  0  0  0  0
   -2.0001    0.0734   -4.6062 H   0  0  0  0  0  0  0  0  0  0  0  0
    4.1643   -0.9543    0.9533 H   0  0  0  0  0  0  0  0  0  0  0  0
    4.2179    0.7557    1.4281 H   0  0  0  0  0  0  0  0  0  0  0  0
    3.6236   -1.4130    4.8376 H   0  0  0  0  0  0  0  0  0  0  0  0
    2.3840   -1.1592    3.6374 H   0  0  0  0  0  0  0  0  0  0  0  0
  2  1  1  0  0  0  0
  3  2  2  0  0  0  0
  4  3  1  0  0  0  0
  5  4  1  0  0  0  0
  6  5  2  0  0  0  0
  6  1  1  0  0  0  0
  7  4  1  0  0  0  0
  8  7  1  0  0  0  0
  9  8  2  0  0  0  0
 10  9  1  0  0  0  0
 11 10  1  0  0  0  0
 12 11  2  0  0  0  0
 12  7  1  0  0  0  0
 13 10  1  0  0  0  0
 14  1  1  0  0  0  0
 15 14  1  0  0  0  0
 16 15  2  0  0  0  0
 17 15  1  0  0  0  0
  2 18  1  0  0  0  0
  3 19  1  0  0  0  0
  4 20  1  0  0  0  0
  5 21  1  0  0  0  0
  6 22  1  0  0  0  0
  7 23  1  0  0  0  0
  8 24  1  0  0  0  0
  9 25  1  0  0  0  0
 11 26  1  0  0  0  0
 12 27  1  0  0  0  0
 13 28  1  0  0  0  0
 13 29  1  0  0  0  0
 13 30  1  0  0  0  0
 14 31  1  0  0  0  0
 14 32  1  0  0  0  0
 17 33  1  0  0  0  0
 17 34  1  0  0  0  0
M  END
>  <energy>
38.896022242227652

$$$$
N1(C=C[C@H](C=C1)[C@H]1C=CN(C=C1)C)CC(=O)N
                    3D

 34 35  0  0  0  0  0  0  0  0999 V2000
    1.8439   -0.2083    2.2636 N   0  0  0  0  0  0  0  0  0  0  0  0
    0.5970   -0.5914    2.7529 C   0  0  0  0  0  0  0  0  0  0  0  0
   -0.4315   -0.9630    1.9756 C   0  0  0  0  0  0  0  0  0  0  0  0
   -0.3186   -0.9735    0.4589 C   0  0  0  0  0  0  0  0  0  0  0  0
    1.0844   -0.5811    0.0050 C   0  0  0  0  0  0  0  0  0  0  0  0
    2.0272   -0.2012    0.8841 C   0  0  0  0  0  0  0  0  0  0  0  0
   -1.4314   -0.0817   -0.1867 C   0  0  0  0  0  0  0  0  0  0  0  0
   -1.1289    1.4010   -0.0368 C   0  0  0  0  0  0  0  0  0  0  0  0
   -0.8859    2.1718   -1.1051 C   0  0  0  0  0  0  0  0  0  0  0  0
   -0.9697    1.7138   -2.4150 N   0  0  0  0  0  0  0  0  0  0  0  0
   -1.3951    0.4107   -2.6327 C   0  0  0  0  0  0  0  0  0  0  0  0
   -1.6477   -0.4607   -1.6446 C   0  0  0  0  0  0  0  0  0  0  0  0
   -0.4295    2.5110   -3.5160 C   0  0  0  0  0  0  0  0  0  0  0  0
    2.8048    0.4627    3.1758 C   0  0  0  0  0  0  0  0  0  0  0  0
    4.2659    0.2175    2.8003 C   0  0  0  0  0  0  0  0  0  0  0  0
    5.0284    1.1034    2.4239 O   0  0  0  0  0  0  0  0  0  0  0  0
    4.7179   -1.0682    2.9262 N   0  0  0  0  0  0  0  0  0  0  0  0
    0.4953   -0.5566    3.8319 H   0  0  0  0  0  0  0  0  0  0  0  0
   -1.3792   -1.2458    2.4218 H   0  0  0  0  0  0  0  0  0  0  0  0
   -0.4798   -2.0134    0.1448 H   0  0  0  0  0  0  0  0  0  0  0  0
    1.2804   -0.5482   -1.0624 H   0  0  0  0  0  0  0  0  0  0  0  0
    2.9942    0.1558    0.5332 H   0  0  0  0  0  0  0  0  0  0  0  0
   -2.3816   -0.2671    0.3287 H   0  0  0  0  0  0  0  0  0  0  0  0
   -1.0500    1.8121    0.9630 H   0  0  0  0  0  0  0  0  0  0  0  0
   -0.5962    3.2114   -0.9943 H   0  0  0  0  0  0  0  0  0  0  0  0
   -1.5156    0.1326   -3.6786 H   0  0  0  0  0  0  0  0  0  0  0  0
   -1.9892   -1.4638   -1.8768 H   0  0  0  0  0  0  0  0  0  0  0  0
   -0.9764    2.3275   -4.4473 H   0  0  0  0  0  0  0  0  0  0  0  0
   -0.4845    3.5837   -3.3023 H   0  0  0  0  0  0  0  0  0  0  0  0
    0.6214    2.2440   -3.6776 H   0  0  0  0  0  0  0  0  0  0  0  0
    2.6213    1.5444    3.1707 H   0  0  0  0  0  0  0  0  0  0  0  0
    2.6710    0.1130    4.2073 H   0  0  0  0  0  0  0  0  0  0  0  0
    5.6453   -1.2287    2.5516 H   0  0  0  0  0  0  0  0  0  0  0  0
    4.0354   -1.8063    2.7921 H   0  0  0  0  0  0  0  0  0  0  0  0
  2  1  1  0  0  0  0
  3  2  2  0  0  0  0
  4  3  1  0  0  0  0
  5  4  1  0  0  0  0
  6  5  2  0  0  0  0
  6  1  1  0  0  0  0
  7  4  1  0  0  0  0
  8  7  1  0  0  0  0
  9  8  2  0  0  0  0
 10  9  1  0  0  0  0
 11 10  1  0  0  0  0
 12 11  2  0  0  0  0
 12  7  1  0  0  0  0
 13 10  1  0  0  0  0
 14  1  1  0  0  0  0
 15 14  1  0  0  0  0
 16 15  2  0  0  0  0
 17 15  1  0  0  0  0
  2 18  1  0  0  0  0
  3 19  1  0  0  0  0
  4 20  1  0  0  0  0
  5 21  1  0  0  0  0
  6 22  1  0  0  0  0
  7 23  1  0  0  0  0
  8 24  1  0  0  0  0
  9 25  1  0  0  0  0
 11 26  1  0  0  0  0
 12 27  1  0  0  0  0
 13 28  1  0  0  0  0
 13 29  1  0  0  0  0
 13 30  1  0  0  0  0
 14 31  1  0  0  0  0
 14 32  1  0  0  0  0
 17 33  1  0  0  0  0
 17 34  1  0  0  0  0
M  END
>  <energy>
42.955947971070877

$$$$
N1(C=C[C@H](C=C1)[C@H]1C=CN(C=C1)C)CC(=O)N
                    3D

 34 35  0  0  0  0  0  0  0  0999 V2000
    2.0951    0.1557    2.0542 N   0  0  0  0  0  0  0  0  0  0  0  0
    0.9191   -0.3952    2.5522 C   0  0  0  0  0  0  0  0  0  0  0  0
   -0.0510   -0.9022    1.7740 C   0  0  0  0  0  0  0  0  0  0  0  0
    0.0717   -0.9220    0.2511 C   0  0  0  0  0  0  0  0  0  0  0  0
    1.4053   -0.3453   -0.2030 C   0  0  0  0  0  0  0  0  0  0  0  0
    2.2980    0.1374    0.6768 C   0  0  0  0  0  0  0  0  0  0  0  0
   -1.1716   -0.2472   -0.4235 C   0  0  0  0  0  0  0  0  0  0  0  0
   -1.2380    1.2552   -0.1899 C   0  0  0  0  0  0  0  0  0  0  0  0
   -1.3693    2.1179   -1.2093 C   0  0  0  0  0  0  0  0  0  0  0  0
   -1.4544    1.7298   -2.5418 N   0  0  0  0  0  0  0  0  0  0  0  0
   -1.4228    0.3707   -2.8379 C   0  0  0  0  0  0  0  0  0  0  0  0
   -1.2905   -0.5881   -1.9055 C   0  0  0  0  0  0  0  0  0  0  0  0
   -1.7054    2.7279   -3.5850 C   0  0  0  0  0  0  0  0  0  0  0  0
    3.0705    0.8066    2.9537 C   0  0  0  0  0  0  0  0  0  0  0  0
    4.2053   -0.1229    3.3917 C   0  0  0  0  0  0  0  0  0  0  0  0
    4.8842   -0.8070    2.6312 O   0  0  0  0  0  0  0  0  0  0  0  0
    4.4851   -0.1085    4.7402 N   0  0  0  0  0  0  0  0  0  0  0  0
    0.8282   -0.3846    3.6337 H   0  0  0  0  0  0  0  0  0  0  0  0
   -0.9486   -1.3161    2.2225 H   0  0  0  0  0  0  0  0  0  0  0  0
    0.0720   -1.9860   -0.0349 H   0  0  0  0  0  0  0  0  0  0  0  0
    1.6226   -0.3303   -1.2645 H   0  0  0  0  0  0  0  0  0  0  0  0
    3.2504    0.5440    0.3484 H   0  0  0  0  0  0  0  0  0  0  0  0
   -2.0694   -0.6724    0.0490 H   0  0  0  0  0  0  0  0  0  0  0  0
   -1.1721    1.6171    0.8310 H   0  0  0  0  0  0  0  0  0  0  0  0
   -1.4106    3.1877   -1.0342 H   0  0  0  0  0  0  0  0  0  0  0  0
   -1.5204    0.1244   -3.8905 H   0  0  0  0  0  0  0  0  0  0  0  0
   -1.2870   -1.6365   -2.1930 H   0  0  0  0  0  0  0  0  0  0  0  0
   -1.2340    2.4493   -4.5353 H   0  0  0  0  0  0  0  0  0  0  0  0
   -2.7837    2.8333   -3.7499 H   0  0  0  0  0  0  0  0  0  0  0  0
   -1.3065    3.7094   -3.2986 H   0  0  0  0  0  0  0  0  0  0  0  0
    3.5334    1.6714    2.4641 H   0  0  0  0  0  0  0  0  0  0  0  0
    2.5541    1.1922    3.8372 H   0  0  0  0  0  0  0  0  0  0  0  0
    5.2142   -0.7352    5.0620 H   0  0  0  0  0  0  0  0  0  0  0  0
    3.9162    0.3683    5.4299 H   0  0  0  0  0  0  0  0  0  0  0  0
  2  1  1  0  0  0  0
  3  2  2  0  0  0  0
  4  3  1  0  0  0  0
  5  4  1  0  0  0  0
  6  5  2  0  0  0  0
  6  1  1  0  0  0  0
  7  4  1  0  0  0  0
  8  7  1  0  0  0  0
  9  8  2  0  0  0  0
 10  9  1  0  0  0  0
 11 10  1  0  0  0  0
 12 11  2  0  0  0  0
 12  7  1  0  0  0  0
 13 10  1  0  0  0  0
 14  1  1  0  0  0  0
 15 14  1  0  0  0  0
 16 15  2  0  0  0  0
 17 15  1  0  0  0  0
  2 18  1  0  0  0  0
  3 19  1  0  0  0  0
  4 20  1  0  0  0  0
  5 21  1  0  0  0  0
  6 22  1  0  0  0  0
  7 23  1  0  0  0  0
  8 24  1  0  0  0  0
  9 25  1  0  0  0  0
 11 26  1  0  0  0  0
 12 27  1  0  0  0  0
 13 28  1  0  0  0  0
 13 29  1  0  0  0  0
 13 30  1  0  0  0  0
 14 31  1  0  0  0  0
 14 32  1  0  0  0  0
 17 33  1  0  0  0  0
 17 34  1  0  0  0  0
M  END
>  <energy>
45.304825246914206

$$$$
N1(C=C[C@H](C=C1)[C@H]1C=CN(C=C1)C)CC(=O)N
                    3D

 34 35  0  0  0  0  0  0  0  0999 V2000
    1.7094   -0.4603    2.4856 N   0  0  0  0  0  0  0  0  0  0  0  0
    0.9708    0.6887    2.7496 C   0  0  0  0  0  0  0  0  0  0  0  0
   -0.2796    0.8798    2.3030 C   0  0  0  0  0  0  0  0  0  0  0  0
   -0.9903   -0.1657    1.4459 C   0  0  0  0  0  0  0  0  0  0  0  0
   -0.1877   -1.4659    1.4120 C   0  0  0  0  0  0  0  0  0  0  0  0
    1.0643   -1.5313    1.8868 C   0  0  0  0  0  0  0  0  0  0  0  0
   -1.4802    0.3563    0.0247 C   0  0  0  0  0  0  0  0  0  0  0  0
   -1.0379    1.7712   -0.3426 C   0  0  0  0  0  0  0  0  0  0  0  0
   -0.4091    2.0382   -1.4970 C   0  0  0  0  0  0  0  0  0  0  0  0
   -0.1184    1.0718   -2.4513 N   0  0  0  0  0  0  0  0  0  0  0  0
   -0.5502   -0.2292   -2.2285 C   0  0  0  0  0  0  0  0  0  0  0  0
   -1.2092   -0.6127   -1.1243 C   0  0  0  0  0  0  0  0  0  0  0  0
    0.6319    1.4099   -3.6625 C   0  0  0  0  0  0  0  0  0  0  0  0
    3.1613   -0.5151    2.7758 C   0  0  0  0  0  0  0  0  0  0  0  0
    3.9683    0.3237    1.7740 C   0  0  0  0  0  0  0  0  0  0  0  0
    5.1221    0.6902    1.9969 O   0  0  0  0  0  0  0  0  0  0  0  0
    3.3655    0.6134    0.5812 N   0  0  0  0  0  0  0  0  0  0  0  0
    1.4868    1.4401    3.3410 H   0  0  0  0  0  0  0  0  0  0  0  0
   -0.8054    1.7953    2.5462 H   0  0  0  0  0  0  0  0  0  0  0  0
   -1.9055   -0.4145    2.0021 H   0  0  0  0  0  0  0  0  0  0  0  0
   -0.6484   -2.3538    0.9942 H   0  0  0  0  0  0  0  0  0  0  0  0
    1.6376   -2.4524    1.8310 H   0  0  0  0  0  0  0  0  0  0  0  0
   -2.5784    0.4116    0.0921 H   0  0  0  0  0  0  0  0  0  0  0  0
   -1.2789    2.5829    0.3341 H   0  0  0  0  0  0  0  0  0  0  0  0
   -0.1179    3.0479   -1.7661 H   0  0  0  0  0  0  0  0  0  0  0  0
   -0.3491   -0.9273   -3.0354 H   0  0  0  0  0  0  0  0  0  0  0  0
   -1.5660   -1.6320   -1.0371 H   0  0  0  0  0  0  0  0  0  0  0  0
    0.4168    0.7066   -4.4731 H   0  0  0  0  0  0  0  0  0  0  0  0
    0.3669    2.4094   -4.0215 H   0  0  0  0  0  0  0  0  0  0  0  0
    1.7074    1.3831   -3.4605 H   0  0  0  0  0  0  0  0  0  0  0  0
    3.3486   -0.1305    3.7851 H   0  0  0  0  0  0  0  0  0  0  0  0
    3.5382   -1.5442    2.7271 H   0  0  0  0  0  0  0  0  0  0  0  0
    3.8240    1.2622   -0.0406 H   0  0  0  0  0  0  0  0  0  0  0  0
    2.3561    0.5110    0.5143 H   0  0  0  0  0  0  0  0  0  0  0  0
  2  1  1  0  0  0  0
  3  2  2  0  0  0  0
  4  3  1  0  0  0  0
  5  4  1  0  0  0  0
  6  5  2  0  0  0  0
  6  1  1  0  0  0  0
  7  4  1  0  0  0  0
  8  7  1  0  0  0  0
  9  8  2  0  0  0  0
 10  9  1  0  0  0  0
 11 10  1  0  0  0  0
 12 11  2  0  0  0  0
 12  7  1  0  0  0  0
 13 10  1  0  0  0  0
 14  1  1  0  0  0  0
 15 14  1  0  0  0  0
 16 15  2  0  0  0  0
 17 15  1  0  0  0  0
  2 18  1  0  0  0  0
  3 19  1  0  0  0  0
  4 20  1  0  0  0  0
  5 21  1  0  0  0  0
  6 22  1  0  0  0  0
  7 23  1  0  0  0  0
  8 24  1  0  0  0  0
  9 25  1  0  0  0  0
 11 26  1  0  0  0  0
 12 27  1  0  0  0  0
 13 28  1  0  0  0  0
 13 29  1  0  0  0  0
 13 30  1  0  0  0  0
 14 31  1  0  0  0  0
 14 32  1  0  0  0  0
 17 33  1  0  0  0  0
 17 34  1  0  0  0  0
M  END
>  <energy>
46.806841368252059

$$$$
