C1=CN2C(=C[C@@H]1C)C1=C[C@@H](C=CN1CC2)C
                    3D

 34 36  0  0  0  0  0  0  0  0999 V2000
   -2.3998    0.7774    2.5501 C   0  0  0  0  0  0  0  0  0  0  0  0
   -1.7925   -0.4125    2.4634 C   0  0  0  0  0  0  0  0  0  0  0  0
   -0.8362   -0.7137    1.5060 N   0  0  0  0  0  0  0  0  0  0  0  0
   -0.5153    0.2234    0.4958 C   0  0  0  0  0  0  0  0  0  0  0  0
   -1.0683    1.4573    0.5280 C   0  0  0  0  0  0  0  0  0  0  0  0
   -2.0663    1.8849    1.5823 C   0  0  0  0  0  0  0  0  0  0  0  0
   -1.5388    3.1064    2.3352 C   0  0  0  0  0  0  0  0  0  0  0  0
    0.4796   -0.1707   -0.5416 C   0  0  0  0  0  0  0  0  0  0  0  0
    0.5046    0.3946   -1.7704 C   0  0  0  0  0  0  0  0  0  0  0  0
    1.5068    0.0052   -2.8354 C   0  0  0  0  0  0  0  0  0  0  0  0
    2.4939   -1.0280   -2.3539 C   0  0  0  0  0  0  0  0  0  0  0  0
    2.3860   -1.5589   -1.1301 C   0  0  0  0  0  0  0  0  0  0  0  0
    1.3901   -1.2088   -0.2313 N   0  0  0  0  0  0  0  0  0  0  0  0
    1.2999   -1.8649    1.0843 C   0  0  0  0  0  0  0  0  0  0  0  0
   -0.1696   -2.0264    1.4926 C   0  0  0  0  0  0  0  0  0  0  0  0
    0.7805   -0.5026   -4.0809 C   0  0  0  0  0  0  0  0  0  0  0  0
   -3.1453    0.9585    3.3163 H   0  0  0  0  0  0  0  0  0  0  0  0
   -2.0263   -1.2142    3.1576 H   0  0  0  0  0  0  0  0  0  0  0  0
   -0.8094    2.2101   -0.2077 H   0  0  0  0  0  0  0  0  0  0  0  0
   -2.9931    2.1677    1.0674 H   0  0  0  0  0  0  0  0  0  0  0  0
   -2.2721    3.4684    3.0646 H   0  0  0  0  0  0  0  0  0  0  0  0
   -1.3274    3.9305    1.6442 H   0  0  0  0  0  0  0  0  0  0  0  0
   -0.6126    2.8778    2.8755 H   0  0  0  0  0  0  0  0  0  0  0  0
   -0.2074    1.1621   -2.0522 H   0  0  0  0  0  0  0  0  0  0  0  0
    2.0718    0.9066   -3.1043 H   0  0  0  0  0  0  0  0  0  0  0  0
    3.2961   -1.3339   -3.0162 H   0  0  0  0  0  0  0  0  0  0  0  0
    3.0895   -2.3074   -0.7778 H   0  0  0  0  0  0  0  0  0  0  0  0
    1.7697   -2.8557    1.0602 H   0  0  0  0  0  0  0  0  0  0  0  0
    1.8389   -1.2594    1.8239 H   0  0  0  0  0  0  0  0  0  0  0  0
   -0.6932   -2.6865    0.7897 H   0  0  0  0  0  0  0  0  0  0  0  0
   -0.2102   -2.4975    2.4823 H   0  0  0  0  0  0  0  0  0  0  0  0
    0.0873    0.2532   -4.4676 H   0  0  0  0  0  0  0  0  0  0  0  0
    1.4907   -0.7386   -4.8817 H   0  0  0  0  0  0  0  0  0  0  0  0
    0.2020   -1.4092   -3.8672 H   0  0  0  0  0  0  0  0  0  0  0  0
  2  1  2  0  0  0  0
  3  2  1  0  0  0  0
  4  3  1  0  0  0  0
  5  4  2  0  0  0  0
  6  5  1  0  0  0  0
  6  1  1  0  0  0  0
  7  6  1  0  0  0  0
  8  4  1  0  0  0  0
  9  8  2  0  0  0  0
 10  9  1  0  0  0  0
 11 10  1  0  0  0  0
 12 11  2  0  0  0  0
 13 12  1  0  0  0  0
 13  8  1  0  0  0  0
 14 13  1  0  0  0  0
 15 14  1  0  0  0  0
 15  3  1  0  0  0  0
 16 10  1  0  0  0  0
  1 17  1  0  0  0  0
  2 18  1  0  0  0  0
  5 19  1  0  0  0  0
  6 20  1  0  0  0  0
  7 21  1  0  0  0  0
  7 22  1  0  0  0  0
  7 23  1  0  0  0  0
  9 24  1  0  0  0  0
 10 25  1  0  0  0  0
 11 26  1  0  0  0  0
 12 27  1  0  0  0  0
 14 28  1  0  0  0  0
 14 29  1  0  0  0  0
 15 30  1  0  0  0  0
 15 31  1  0  0  0  0
 16 32  1  0  0  0  0
 16 33  1  0  0  0  0
 16 34  1  0  0  0  0
M  END
>  <energy>
25.343586531183654

$$$$
