N1(C=C[C@@H](C=C1)[C@H]1C=CN(C=C1)C)[O]
                    3D

 27 28  0  0  0  0  0  0  0  0999 V2000
   -3.3377    0.9474    0.7117 N   0  0  0  0  0  0  0  0  0  0  0  0
   -3.2708   -0.3797    1.0535 C   0  0  0  0  0  0  0  0  0  0  0  0
   -2.4084   -1.2240    0.4581 C   0  0  0  0  0  0  0  0  0  0  0  0
   -1.3962   -0.7185   -0.5851 C   0  0  0  0  0  0  0  0  0  0  0  0
   -1.5250    0.7943   -0.8143 C   0  0  0  0  0  0  0  0  0  0  0  0
   -2.4385    1.5243   -0.1488 C   0  0  0  0  0  0  0  0  0  0  0  0
    0.0483   -1.2137   -0.1971 C   0  0  0  0  0  0  0  0  0  0  0  0
    0.4682   -2.3430   -1.1317 C   0  0  0  0  0  0  0  0  0  0  0  0
    1.5818   -2.2566   -1.8748 C   0  0  0  0  0  0  0  0  0  0  0  0
    2.4397   -1.1650   -1.8437 N   0  0  0  0  0  0  0  0  0  0  0  0
    2.1915   -0.1545   -0.9238 C   0  0  0  0  0  0  0  0  0  0  0  0
    1.1099   -0.1258   -0.1310 C   0  0  0  0  0  0  0  0  0  0  0  0
    3.6738   -1.1638   -2.6315 C   0  0  0  0  0  0  0  0  0  0  0  0
   -3.9425    1.7837    1.6183 O   0  0  0  0  0  0  0  0  0  0  0  0
   -3.9760   -0.6830    1.8177 H   0  0  0  0  0  0  0  0  0  0  0  0
   -2.4007   -2.2767    0.7227 H   0  0  0  0  0  0  0  0  0  0  0  0
   -1.6921   -1.1844   -1.5365 H   0  0  0  0  0  0  0  0  0  0  0  0
   -0.8536    1.2678   -1.5245 H   0  0  0  0  0  0  0  0  0  0  0  0
   -2.5436    2.5966   -0.2586 H   0  0  0  0  0  0  0  0  0  0  0  0
    0.0209   -1.6556    0.8096 H   0  0  0  0  0  0  0  0  0  0  0  0
   -0.1555   -3.2290   -1.1866 H   0  0  0  0  0  0  0  0  0  0  0  0
    1.8780   -3.0590   -2.5444 H   0  0  0  0  0  0  0  0  0  0  0  0
    2.9483    0.6233   -0.8752 H   0  0  0  0  0  0  0  0  0  0  0  0
    0.9806    0.6777    0.5869 H   0  0  0  0  0  0  0  0  0  0  0  0
    3.9618   -0.1441   -2.9108 H   0  0  0  0  0  0  0  0  0  0  0  0
    3.5536   -1.7328   -3.5602 H   0  0  0  0  0  0  0  0  0  0  0  0
    4.4903   -1.6102   -2.0541 H   0  0  0  0  0  0  0  0  0  0  0  0
  2  1  1  0  0  0  0
  3  2  2  0  0  0  0
  4  3  1  0  0  0  0
  5  4  1  0  0  0  0
  6  5  2  0  0  0  0
  6  1  1  0  0  0  0
  7  4  1  0  0  0  0
  8  7  1  0  0  0  0
  9  8  2  0  0  0  0
 10  9  1  0  0  0  0
 11 10  1  0  0  0  0
 12 11  2  0  0  0  0
 12  7  1  0  0  0  0
 13 10  1  0  0  0  0
 14  1  1  0  0  0  0
  2 15  1  0  0  0  0
  3 16  1  0  0  0  0
  4 17  1  0  0  0  0
  5 18  1  0  0  0  0
  6 19  1  0  0  0  0
  7 20  1  0  0  0  0
  8 21  1  0  0  0  0
  9 22  1  0  0  0  0
 11 23  1  0  0  0  0
 12 24  1  0  0  0  0
 13 25  1  0  0  0  0
 13 26  1  0  0  0  0
 13 27  1  0  0  0  0
M  RAD  1  14   2
M  END
>  <energy>
38.508691965565518

$$$$
