c1ccc2c(c1)c(c1c(n2)cccc1)/N=C\1/C(=CC(=O)C=C1)N(C)C
                    3D

 42 45  0  0  0  0  0  0  0  0999 V2000
   -0.7548   -4.0927    0.2698 C   0  0  0  0  0  0  0  0  0  0  0  0
   -2.0917   -4.4056    0.0705 C   0  0  0  0  0  0  0  0  0  0  0  0
   -3.0256   -3.3785   -0.0890 C   0  0  0  0  0  0  0  0  0  0  0  0
   -2.6626   -2.0374   -0.0452 C   0  0  0  0  0  0  0  0  0  0  0  0
   -1.3140   -1.7132    0.1784 C   0  0  0  0  0  0  0  0  0  0  0  0
   -0.3679   -2.7554    0.3211 C   0  0  0  0  0  0  0  0  0  0  0  0
   -0.9820   -0.3397    0.2580 C   0  0  0  0  0  0  0  0  0  0  0  0
   -1.9805    0.6398    0.0640 C   0  0  0  0  0  0  0  0  0  0  0  0
   -3.2905    0.1900   -0.1710 C   0  0  0  0  0  0  0  0  0  0  0  0
   -3.6170   -1.1102   -0.2106 N   0  0  0  0  0  0  0  0  0  0  0  0
   -4.2937    1.1312   -0.3656 C   0  0  0  0  0  0  0  0  0  0  0  0
   -4.0382    2.5047   -0.3306 C   0  0  0  0  0  0  0  0  0  0  0  0
   -2.7467    2.9557   -0.0976 C   0  0  0  0  0  0  0  0  0  0  0  0
   -1.7248    2.0309    0.0979 C   0  0  0  0  0  0  0  0  0  0  0  0
    0.3554    0.0559    0.5060 N   0  0  0  0  0  0  0  0  0  0  0  0
    0.8440    0.0602    1.7152 C   0  0  0  0  0  0  0  0  0  0  0  0
    2.3176    0.4089    1.9417 C   0  0  0  0  0  0  0  0  0  0  0  0
    2.8463    0.2007    3.1588 C   0  0  0  0  0  0  0  0  0  0  0  0
    2.0819   -0.2880    4.3121 C   0  0  0  0  0  0  0  0  0  0  0  0
    2.6210   -0.5133    5.3883 O   0  0  0  0  0  0  0  0  0  0  0  0
    0.6380   -0.4695    4.1325 C   0  0  0  0  0  0  0  0  0  0  0  0
    0.0641   -0.2951    2.9418 C   0  0  0  0  0  0  0  0  0  0  0  0
    3.1013    0.9191    0.8847 N   0  0  0  0  0  0  0  0  0  0  0  0
    2.5204    1.7655   -0.1621 C   0  0  0  0  0  0  0  0  0  0  0  0
    4.2795    0.1751    0.4269 C   0  0  0  0  0  0  0  0  0  0  0  0
   -0.0164   -4.8820    0.3853 H   0  0  0  0  0  0  0  0  0  0  0  0
   -2.4143   -5.4433    0.0313 H   0  0  0  0  0  0  0  0  0  0  0  0
   -4.0712   -3.6303   -0.2524 H   0  0  0  0  0  0  0  0  0  0  0  0
    0.6840   -2.5181    0.4672 H   0  0  0  0  0  0  0  0  0  0  0  0
   -5.3074    0.7825   -0.5510 H   0  0  0  0  0  0  0  0  0  0  0  0
   -4.8480    3.2116   -0.4881 H   0  0  0  0  0  0  0  0  0  0  0  0
   -2.5313    4.0212   -0.0705 H   0  0  0  0  0  0  0  0  0  0  0  0
   -0.7155    2.3934    0.2754 H   0  0  0  0  0  0  0  0  0  0  0  0
    3.8858    0.4266    3.3629 H   0  0  0  0  0  0  0  0  0  0  0  0
    0.0691   -0.7530    5.0095 H   0  0  0  0  0  0  0  0  0  0  0  0
   -1.0048   -0.4393    2.8427 H   0  0  0  0  0  0  0  0  0  0  0  0
    1.7382    2.4148    0.2450 H   0  0  0  0  0  0  0  0  0  0  0  0
    3.2898    2.4268   -0.5749 H   0  0  0  0  0  0  0  0  0  0  0  0
    2.1159    1.1661   -0.9835 H   0  0  0  0  0  0  0  0  0  0  0  0
    3.9815   -0.6121   -0.2741 H   0  0  0  0  0  0  0  0  0  0  0  0
    4.8213   -0.2918    1.2556 H   0  0  0  0  0  0  0  0  0  0  0  0
    4.9816    0.8437   -0.0835 H   0  0  0  0  0  0  0  0  0  0  0  0
  2  1  1  0  0  0  0
  3  2  2  0  0  0  0
  4  3  1  0  0  0  0
  5  4  1  0  0  0  0
  6  5  1  0  0  0  0
  6  1  2  0  0  0  0
  7  5  2  0  0  0  0
  8  7  1  0  0  0  0
  9  8  2  0  0  0  0
 10  9  1  0  0  0  0
 10  4  2  0  0  0  0
 11  9  1  0  0  0  0
 12 11  2  0  0  0  0
 13 12  1  0  0  0  0
 14 13  2  0  0  0  0
 14  8  1  0  0  0  0
 15  7  1  0  0  0  0
 16 15  2  0  0  0  0
 17 16  1  0  0  0  0
 18 17  2  0  0  0  0
 19 18  1  0  0  0  0
 20 19  2  0  0  0  0
 21 19  1  0  0  0  0
 22 21  2  0  0  0  0
 22 16  1  0  0  0  0
 23 17  1  0  0  0  0
 24 23  1  0  0  0  0
 25 23  1  0  0  0  0
  1 26  1  0  0  0  0
  2 27  1  0  0  0  0
  3 28  1  0  0  0  0
  6 29  1  0  0  0  0
 11 30  1  0  0  0  0
 12 31  1  0  0  0  0
 13 32  1  0  0  0  0
 14 33  1  0  0  0  0
 18 34  1  0  0  0  0
 21 35  1  0  0  0  0
 22 36  1  0  0  0  0
 24 37  1  0  0  0  0
 24 38  1  0  0  0  0
 24 39  1  0  0  0  0
 25 40  1  0  0  0  0
 25 41  1  0  0  0  0
 25 42  1  0  0  0  0
M  END
>  <energy>
92.364043070791112

$$$$
