c1c(c2c3n(c1)CCCn1c3c(cc2)ccc1)C
                    3D

 34 37  0  0  0  0  0  0  0  0999 V2000
    2.6863   -1.5826   -0.5135 C   0  0  0  0  0  0  0  0  0  0  0  0
    2.6270   -0.1949   -0.9618 C   0  0  0  0  0  0  0  0  0  0  0  0
    1.4716    0.5140   -0.8288 C   0  0  0  0  0  0  0  0  0  0  0  0
    0.2804   -0.1385   -0.1672 C   0  0  0  0  0  0  0  0  0  0  0  0
    0.3632   -1.5370    0.0882 N   0  0  0  0  0  0  0  0  0  0  0  0
    1.5828   -2.1814   -0.0531 C   0  0  0  0  0  0  0  0  0  0  0  0
   -0.8798   -2.3284    0.1048 C   0  0  0  0  0  0  0  0  0  0  0  0
   -1.6231   -2.2184    1.4236 C   0  0  0  0  0  0  0  0  0  0  0  0
   -1.6451   -0.8155    2.0029 C   0  0  0  0  0  0  0  0  0  0  0  0
   -1.8934    0.2144    0.9783 N   0  0  0  0  0  0  0  0  0  0  0  0
   -0.8055    0.6344    0.1545 C   0  0  0  0  0  0  0  0  0  0  0  0
   -0.8700    2.0271   -0.3860 C   0  0  0  0  0  0  0  0  0  0  0  0
    0.2463    2.6033   -1.1193 C   0  0  0  0  0  0  0  0  0  0  0  0
    1.3587    1.8864   -1.3288 C   0  0  0  0  0  0  0  0  0  0  0  0
   -1.9914    2.7588   -0.2099 C   0  0  0  0  0  0  0  0  0  0  0  0
   -3.1261    2.2304    0.5141 C   0  0  0  0  0  0  0  0  0  0  0  0
   -3.0228    1.0233    1.0843 C   0  0  0  0  0  0  0  0  0  0  0  0
    3.9248    0.2969   -1.5479 C   0  0  0  0  0  0  0  0  0  0  0  0
    3.6148   -2.1356   -0.6032 H   0  0  0  0  0  0  0  0  0  0  0  0
    1.5890   -3.2297    0.2295 H   0  0  0  0  0  0  0  0  0  0  0  0
   -1.5282   -2.0087   -0.7227 H   0  0  0  0  0  0  0  0  0  0  0  0
   -0.6728   -3.3885   -0.0922 H   0  0  0  0  0  0  0  0  0  0  0  0
   -1.1695   -2.8913    2.1620 H   0  0  0  0  0  0  0  0  0  0  0  0
   -2.6502   -2.5732    1.2732 H   0  0  0  0  0  0  0  0  0  0  0  0
   -0.6964   -0.6016    2.5143 H   0  0  0  0  0  0  0  0  0  0  0  0
   -2.4074   -0.7766    2.7924 H   0  0  0  0  0  0  0  0  0  0  0  0
    0.1668    3.6151   -1.5025 H   0  0  0  0  0  0  0  0  0  0  0  0
    2.1659    2.3337   -1.8942 H   0  0  0  0  0  0  0  0  0  0  0  0
   -2.0827    3.7695   -0.5940 H   0  0  0  0  0  0  0  0  0  0  0  0
   -4.0173    2.8372    0.6177 H   0  0  0  0  0  0  0  0  0  0  0  0
   -3.8308    0.6127    1.6821 H   0  0  0  0  0  0  0  0  0  0  0  0
    3.9941    1.3850   -1.6140 H   0  0  0  0  0  0  0  0  0  0  0  0
    4.0659   -0.1150   -2.5532 H   0  0  0  0  0  0  0  0  0  0  0  0
    4.7725   -0.0170   -0.9272 H   0  0  0  0  0  0  0  0  0  0  0  0
  2  1  1  0  0  0  0
  3  2  2  0  0  0  0
  4  3  1  0  0  0  0
  5  4  1  0  0  0  0
  6  5  1  0  0  0  0
  6  1  2  0  0  0  0
  7  5  1  0  0  0  0
  8  7  1  0  0  0  0
  9  8  1  0  0  0  0
 10  9  1  0  0  0  0
 11 10  1  0  0  0  0
 11  4  2  0  0  0  0
 12 11  1  0  0  0  0
 13 12  1  0  0  0  0
 14 13  2  0  0  0  0
 14  3  1  0  0  0  0
 15 12  2  0  0  0  0
 16 15  1  0  0  0  0
 17 16  2  0  0  0  0
 17 10  1  0  0  0  0
 18  2  1  0  0  0  0
  1 19  1  0  0  0  0
  6 20  1  0  0  0  0
  7 21  1  0  0  0  0
  7 22  1  0  0  0  0
  8 23  1  0  0  0  0
  8 24  1  0  0  0  0
  9 25  1  0  0  0  0
  9 26  1  0  0  0  0
 13 27  1  0  0  0  0
 14 28  1  0  0  0  0
 15 29  1  0  0  0  0
 16 30  1  0  0  0  0
 17 31  1  0  0  0  0
 18 32  1  0  0  0  0
 18 33  1  0  0  0  0
 18 34  1  0  0  0  0
M  END
>  <energy>
79.617734708170218

$$$$
