c1ccc2c(c1)Nc1c(S2)cccc1OC
                    3D

 27 29  0  0  0  0  0  0  0  0999 V2000
   -4.0720    1.0580    0.3396 C   0  0  0  0  0  0  0  0  0  0  0  0
   -4.5044   -0.1558   -0.1844 C   0  0  0  0  0  0  0  0  0  0  0  0
   -3.5742   -1.1509   -0.4872 C   0  0  0  0  0  0  0  0  0  0  0  0
   -2.2029   -0.9380   -0.2776 C   0  0  0  0  0  0  0  0  0  0  0  0
   -1.7587    0.2980    0.2241 C   0  0  0  0  0  0  0  0  0  0  0  0
   -2.7098    1.2786    0.5503 C   0  0  0  0  0  0  0  0  0  0  0  0
   -0.4046    0.5489    0.5015 N   0  0  0  0  0  0  0  0  0  0  0  0
    0.6870   -0.2682    0.1428 C   0  0  0  0  0  0  0  0  0  0  0  0
    0.5180   -1.5604   -0.3763 C   0  0  0  0  0  0  0  0  0  0  0  0
   -1.0895   -2.2759   -0.6765 S   0  0  0  0  0  0  0  0  0  0  0  0
    1.6453   -2.3393   -0.6861 C   0  0  0  0  0  0  0  0  0  0  0  0
    2.9359   -1.8476   -0.4790 C   0  0  0  0  0  0  0  0  0  0  0  0
    3.1142   -0.5780    0.0593 C   0  0  0  0  0  0  0  0  0  0  0  0
    1.9958    0.1856    0.3914 C   0  0  0  0  0  0  0  0  0  0  0  0
    2.1983    1.4314    0.9346 O   0  0  0  0  0  0  0  0  0  0  0  0
    2.1790    1.3543    2.3635 C   0  0  0  0  0  0  0  0  0  0  0  0
   -4.7929    1.8319    0.5902 H   0  0  0  0  0  0  0  0  0  0  0  0
   -5.5633   -0.3334   -0.3501 H   0  0  0  0  0  0  0  0  0  0  0  0
   -3.9270   -2.1000   -0.8845 H   0  0  0  0  0  0  0  0  0  0  0  0
   -2.3921    2.2289    0.9725 H   0  0  0  0  0  0  0  0  0  0  0  0
   -0.1445    1.5258    0.5921 H   0  0  0  0  0  0  0  0  0  0  0  0
    1.5226   -3.3393   -1.0969 H   0  0  0  0  0  0  0  0  0  0  0  0
    3.7973   -2.4593   -0.7325 H   0  0  0  0  0  0  0  0  0  0  0  0
    4.1140   -0.1883    0.2281 H   0  0  0  0  0  0  0  0  0  0  0  0
    2.0912    0.3333    2.7565 H   0  0  0  0  0  0  0  0  0  0  0  0
    1.3381    1.9495    2.7316 H   0  0  0  0  0  0  0  0  0  0  0  0
    3.1061    1.7947    2.7423 H   0  0  0  0  0  0  0  0  0  0  0  0
  2  1  2  0  0  0  0
  3  2  1  0  0  0  0
  4  3  2  0  0  0  0
  5  4  1  0  0  0  0
  6  5  2  0  0  0  0
  6  1  1  0  0  0  0
  7  5  1  0  0  0  0
  8  7  1  0  0  0  0
  9  8  2  0  0  0  0
 10  9  1  0  0  0  0
 10  4  1  0  0  0  0
 11  9  1  0  0  0  0
 12 11  2  0  0  0  0
 13 12  1  0  0  0  0
 14 13  2  0  0  0  0
 14  8  1  0  0  0  0
 15 14  1  0  0  0  0
 16 15  1  0  0  0  0
  1 17  1  0  0  0  0
  2 18  1  0  0  0  0
  3 19  1  0  0  0  0
  6 20  1  0  0  0  0
  7 21  1  0  0  0  0
 11 22  1  0  0  0  0
 12 23  1  0  0  0  0
 13 24  1  0  0  0  0
 16 25  1  0  0  0  0
 16 26  1  0  0  0  0
 16 27  1  0  0  0  0
M  END
>  <energy>
68.395287008612641

$$$$
