c1ccc2c(c1)c(c1c(n2)cccc1)[N]C1=C([CH]C(=O)C=C1)OC
                    3D

 38 41  0  0  0  0  0  0  0  0999 V2000
   -3.0947    2.6275    0.5005 C   0  0  0  0  0  0  0  0  0  0  0  0
   -3.8787    1.9826    1.4482 C   0  0  0  0  0  0  0  0  0  0  0  0
   -3.6459    0.6361    1.7392 C   0  0  0  0  0  0  0  0  0  0  0  0
   -2.6462   -0.0872    1.1038 C   0  0  0  0  0  0  0  0  0  0  0  0
   -1.8726    0.5626    0.1235 C   0  0  0  0  0  0  0  0  0  0  0  0
   -2.0938    1.9202   -0.1616 C   0  0  0  0  0  0  0  0  0  0  0  0
   -0.8790   -0.1747   -0.5334 C   0  0  0  0  0  0  0  0  0  0  0  0
   -0.6201   -1.4938   -0.1239 C   0  0  0  0  0  0  0  0  0  0  0  0
   -1.4446   -2.0499    0.8754 C   0  0  0  0  0  0  0  0  0  0  0  0
   -2.4436   -1.3668    1.4545 N   0  0  0  0  0  0  0  0  0  0  0  0
   -1.2014   -3.3537    1.2920 C   0  0  0  0  0  0  0  0  0  0  0  0
   -0.1587   -4.1150    0.7600 C   0  0  0  0  0  0  0  0  0  0  0  0
    0.6665   -3.5638   -0.2087 C   0  0  0  0  0  0  0  0  0  0  0  0
    0.4386   -2.2588   -0.6430 C   0  0  0  0  0  0  0  0  0  0  0  0
   -0.1598    0.4402   -1.6271 N   0  0  0  0  0  0  0  0  0  0  0  0
   -0.3480    0.1462   -3.0370 C   0  0  0  0  0  0  0  0  0  0  0  0
   -1.4260    0.5943   -3.7024 C   0  0  0  0  0  0  0  0  0  0  0  0
   -1.6110    0.1568   -5.1440 C   0  0  0  0  0  0  0  0  0  0  0  0
   -0.4413   -0.4772   -5.8545 C   0  0  0  0  0  0  0  0  0  0  0  0
   -0.4689   -0.6393   -7.0664 O   0  0  0  0  0  0  0  0  0  0  0  0
    0.7334   -0.8515   -5.0531 C   0  0  0  0  0  0  0  0  0  0  0  0
    0.7220   -0.5305   -3.7531 C   0  0  0  0  0  0  0  0  0  0  0  0
   -2.3549    1.3909   -3.0769 O   0  0  0  0  0  0  0  0  0  0  0  0
   -3.1185    2.1389   -4.0145 C   0  0  0  0  0  0  0  0  0  0  0  0
   -3.2609    3.6771    0.2741 H   0  0  0  0  0  0  0  0  0  0  0  0
   -4.6671    2.5198    1.9671 H   0  0  0  0  0  0  0  0  0  0  0  0
   -4.2568    0.1368    2.4880 H   0  0  0  0  0  0  0  0  0  0  0  0
   -1.4929    2.4333   -0.9070 H   0  0  0  0  0  0  0  0  0  0  0  0
   -1.8368   -3.7841    2.0638 H   0  0  0  0  0  0  0  0  0  0  0  0
    0.0092   -5.1288    1.1137 H   0  0  0  0  0  0  0  0  0  0  0  0
    1.4920   -4.1411   -0.6188 H   0  0  0  0  0  0  0  0  0  0  0  0
    1.1178   -1.8419   -1.3734 H   0  0  0  0  0  0  0  0  0  0  0  0
   -2.5965   -0.1720   -5.4555 H   0  0  0  0  0  0  0  0  0  0  0  0
    1.5613   -1.3410   -5.5494 H   0  0  0  0  0  0  0  0  0  0  0  0
    1.6090   -0.7590   -3.1678 H   0  0  0  0  0  0  0  0  0  0  0  0
   -3.7977    1.4868   -4.5716 H   0  0  0  0  0  0  0  0  0  0  0  0
   -2.4703    2.6960   -4.6997 H   0  0  0  0  0  0  0  0  0  0  0  0
   -3.7219    2.8615   -3.4560 H   0  0  0  0  0  0  0  0  0  0  0  0
  2  1  1  0  0  0  0
  3  2  2  0  0  0  0
  4  3  1  0  0  0  0
  5  4  1  0  0  0  0
  6  5  1  0  0  0  0
  6  1  2  0  0  0  0
  7  5  2  0  0  0  0
  8  7  1  0  0  0  0
  9  8  2  0  0  0  0
 10  9  1  0  0  0  0
 10  4  2  0  0  0  0
 11  9  1  0  0  0  0
 12 11  2  0  0  0  0
 13 12  1  0  0  0  0
 14 13  2  0  0  0  0
 14  8  1  0  0  0  0
 15  7  1  0  0  0  0
 16 15  1  0  0  0  0
 17 16  2  0  0  0  0
 18 17  1  0  0  0  0
 19 18  1  0  0  0  0
 20 19  2  0  0  0  0
 21 19  1  0  0  0  0
 22 21  2  0  0  0  0
 22 16  1  0  0  0  0
 23 17  1  0  0  0  0
 24 23  1  0  0  0  0
  1 25  1  0  0  0  0
  2 26  1  0  0  0  0
  3 27  1  0  0  0  0
  6 28  1  0  0  0  0
 11 29  1  0  0  0  0
 12 30  1  0  0  0  0
 13 31  1  0  0  0  0
 14 32  1  0  0  0  0
 18 33  1  0  0  0  0
 21 34  1  0  0  0  0
 22 35  1  0  0  0  0
 24 36  1  0  0  0  0
 24 37  1  0  0  0  0
 24 38  1  0  0  0  0
M  RAD  2  15   2  18   2
M  END
>  <energy>
84.592656142524987

$$$$
