c1c(c2c3n(c1)CCCn1c3c(cc2)ccc1)Cl
                    3D

 31 34  0  0  0  0  0  0  0  0999 V2000
   -2.6472   -2.1319   -0.9470 C   0  0  0  0  0  0  0  0  0  0  0  0
   -2.9357   -0.7218   -1.1204 C   0  0  0  0  0  0  0  0  0  0  0  0
   -2.0452    0.2355   -0.7540 C   0  0  0  0  0  0  0  0  0  0  0  0
   -0.7198   -0.2027   -0.1839 C   0  0  0  0  0  0  0  0  0  0  0  0
   -0.5703   -1.5868    0.1233 N   0  0  0  0  0  0  0  0  0  0  0  0
   -1.5210   -2.4943   -0.3232 C   0  0  0  0  0  0  0  0  0  0  0  0
    0.3487   -1.9741    1.2106 C   0  0  0  0  0  0  0  0  0  0  0  0
    1.7993   -2.0013    0.7646 C   0  0  0  0  0  0  0  0  0  0  0  0
    2.1899   -0.8407   -0.1325 C   0  0  0  0  0  0  0  0  0  0  0  0
    1.6211    0.4409    0.3226 N   0  0  0  0  0  0  0  0  0  0  0  0
    0.2606    0.7351    0.0081 C   0  0  0  0  0  0  0  0  0  0  0  0
   -0.1027    2.1801   -0.1230 C   0  0  0  0  0  0  0  0  0  0  0  0
   -1.4173    2.5874   -0.5953 C   0  0  0  0  0  0  0  0  0  0  0  0
   -2.3397    1.6645   -0.9006 C   0  0  0  0  0  0  0  0  0  0  0  0
    0.8014    3.1265    0.2100 C   0  0  0  0  0  0  0  0  0  0  0  0
    2.1253    2.7703    0.6692 C   0  0  0  0  0  0  0  0  0  0  0  0
    2.4788    1.4787    0.6806 C   0  0  0  0  0  0  0  0  0  0  0  0
   -4.4921   -0.3806   -1.8153 Cl  0  0  0  0  0  0  0  0  0  0  0  0
   -3.3646   -2.8727   -1.2795 H   0  0  0  0  0  0  0  0  0  0  0  0
   -1.2987   -3.5380   -0.1224 H   0  0  0  0  0  0  0  0  0  0  0  0
    0.2254   -1.2836    2.0563 H   0  0  0  0  0  0  0  0  0  0  0  0
    0.0870   -2.9619    1.6126 H   0  0  0  0  0  0  0  0  0  0  0  0
    2.0053   -2.9371    0.2305 H   0  0  0  0  0  0  0  0  0  0  0  0
    2.4364   -2.0095    1.6578 H   0  0  0  0  0  0  0  0  0  0  0  0
    1.8697   -1.0360   -1.1653 H   0  0  0  0  0  0  0  0  0  0  0  0
    3.2857   -0.7901   -0.1806 H   0  0  0  0  0  0  0  0  0  0  0  0
   -1.6434    3.6434   -0.7005 H   0  0  0  0  0  0  0  0  0  0  0  0
   -3.3128    1.9878   -1.2528 H   0  0  0  0  0  0  0  0  0  0  0  0
    0.5775    4.1855    0.1355 H   0  0  0  0  0  0  0  0  0  0  0  0
    2.8176    3.5548    0.9494 H   0  0  0  0  0  0  0  0  0  0  0  0
    3.4809    1.1727    0.9649 H   0  0  0  0  0  0  0  0  0  0  0  0
  2  1  1  0  0  0  0
  3  2  2  0  0  0  0
  4  3  1  0  0  0  0
  5  4  1  0  0  0  0
  6  5  1  0  0  0  0
  6  1  2  0  0  0  0
  7  5  1  0  0  0  0
  8  7  1  0  0  0  0
  9  8  1  0  0  0  0
 10  9  1  0  0  0  0
 11 10  1  0  0  0  0
 11  4  2  0  0  0  0
 12 11  1  0  0  0  0
 13 12  1  0  0  0  0
 14 13  2  0  0  0  0
 14  3  1  0  0  0  0
 15 12  2  0  0  0  0
 16 15  1  0  0  0  0
 17 16  2  0  0  0  0
 17 10  1  0  0  0  0
 18  2  1  0  0  0  0
  1 19  1  0  0  0  0
  6 20  1  0  0  0  0
  7 21  1  0  0  0  0
  7 22  1  0  0  0  0
  8 23  1  0  0  0  0
  8 24  1  0  0  0  0
  9 25  1  0  0  0  0
  9 26  1  0  0  0  0
 13 27  1  0  0  0  0
 14 28  1  0  0  0  0
 15 29  1  0  0  0  0
 16 30  1  0  0  0  0
 17 31  1  0  0  0  0
M  END
>  <energy>
75.098976966675451

$$$$
