C1(=CN2C(=C[C@H]1C)C1=C[C@H](C(=CN1CCC2)C)C)C
                    3D

 43 45  0  0  0  0  0  0  0  0999 V2000
    3.4434    0.2324   -0.9791 C   0  0  0  0  0  0  0  0  0  0  0  0
    2.6627   -0.8578   -1.0642 C   0  0  0  0  0  0  0  0  0  0  0  0
    1.3137   -0.8836   -0.7304 N   0  0  0  0  0  0  0  0  0  0  0  0
    0.6839    0.2990   -0.2848 C   0  0  0  0  0  0  0  0  0  0  0  0
    1.3838    1.4467   -0.1627 C   0  0  0  0  0  0  0  0  0  0  0  0
    2.8598    1.5463   -0.4824 C   0  0  0  0  0  0  0  0  0  0  0  0
    3.5948    2.0582    0.7610 C   0  0  0  0  0  0  0  0  0  0  0  0
   -0.7429    0.2591    0.1148 C   0  0  0  0  0  0  0  0  0  0  0  0
   -1.6174    1.1397   -0.4163 C   0  0  0  0  0  0  0  0  0  0  0  0
   -3.0949    1.1262   -0.0922 C   0  0  0  0  0  0  0  0  0  0  0  0
   -3.4581    0.0740    0.9435 C   0  0  0  0  0  0  0  0  0  0  0  0
   -2.5160   -0.7662    1.4061 C   0  0  0  0  0  0  0  0  0  0  0  0
   -1.1822   -0.7382    1.0142 N   0  0  0  0  0  0  0  0  0  0  0  0
   -0.2161   -1.6998    1.5740 C   0  0  0  0  0  0  0  0  0  0  0  0
    0.2309   -2.7231    0.5305 C   0  0  0  0  0  0  0  0  0  0  0  0
    0.5397   -2.1303   -0.8440 C   0  0  0  0  0  0  0  0  0  0  0  0
   -4.8669    0.0495    1.4547 C   0  0  0  0  0  0  0  0  0  0  0  0
   -3.8821    0.9301   -1.3915 C   0  0  0  0  0  0  0  0  0  0  0  0
    4.8837    0.2122   -1.3963 C   0  0  0  0  0  0  0  0  0  0  0  0
    3.0550   -1.8057   -1.4190 H   0  0  0  0  0  0  0  0  0  0  0  0
    0.9009    2.3475    0.2035 H   0  0  0  0  0  0  0  0  0  0  0  0
    2.9684    2.2907   -1.2821 H   0  0  0  0  0  0  0  0  0  0  0  0
    3.1318    2.9760    1.1423 H   0  0  0  0  0  0  0  0  0  0  0  0
    4.6405    2.2949    0.5370 H   0  0  0  0  0  0  0  0  0  0  0  0
    3.5834    1.3159    1.5680 H   0  0  0  0  0  0  0  0  0  0  0  0
   -1.2765    1.8902   -1.1236 H   0  0  0  0  0  0  0  0  0  0  0  0
   -3.3436    2.1118    0.3242 H   0  0  0  0  0  0  0  0  0  0  0  0
   -2.7522   -1.5240    2.1476 H   0  0  0  0  0  0  0  0  0  0  0  0
    0.6506   -1.1636    1.9835 H   0  0  0  0  0  0  0  0  0  0  0  0
   -0.6455   -2.2360    2.4297 H   0  0  0  0  0  0  0  0  0  0  0  0
    1.1188   -3.2404    0.9145 H   0  0  0  0  0  0  0  0  0  0  0  0
   -0.5465   -3.4873    0.4077 H   0  0  0  0  0  0  0  0  0  0  0  0
    1.0807   -2.8787   -1.4380 H   0  0  0  0  0  0  0  0  0  0  0  0
   -0.3888   -1.9472   -1.4017 H   0  0  0  0  0  0  0  0  0  0  0  0
   -5.1681    1.0481    1.7876 H   0  0  0  0  0  0  0  0  0  0  0  0
   -5.5561   -0.2811    0.6725 H   0  0  0  0  0  0  0  0  0  0  0  0
   -4.9802   -0.6288    2.3071 H   0  0  0  0  0  0  0  0  0  0  0  0
   -3.6757   -0.0479   -1.8421 H   0  0  0  0  0  0  0  0  0  0  0  0
   -4.9614    1.0011   -1.2189 H   0  0  0  0  0  0  0  0  0  0  0  0
   -3.6241    1.6994   -2.1291 H   0  0  0  0  0  0  0  0  0  0  0  0
    5.5405    0.3173   -0.5278 H   0  0  0  0  0  0  0  0  0  0  0  0
    5.1503   -0.7233   -1.8993 H   0  0  0  0  0  0  0  0  0  0  0  0
    5.0923    1.0299   -2.0933 H   0  0  0  0  0  0  0  0  0  0  0  0
  2  1  2  0  0  0  0
  3  2  1  0  0  0  0
  4  3  1  0  0  0  0
  5  4  2  0  0  0  0
  6  5  1  0  0  0  0
  6  1  1  0  0  0  0
  7  6  1  0  0  0  0
  8  4  1  0  0  0  0
  9  8  2  0  0  0  0
 10  9  1  0  0  0  0
 11 10  1  0  0  0  0
 12 11  2  0  0  0  0
 13 12  1  0  0  0  0
 13  8  1  0  0  0  0
 14 13  1  0  0  0  0
 15 14  1  0  0  0  0
 16 15  1  0  0  0  0
 16  3  1  0  0  0  0
 17 11  1  0  0  0  0
 18 10  1  0  0  0  0
 19  1  1  0  0  0  0
  2 20  1  0  0  0  0
  5 21  1  0  0  0  0
  6 22  1  0  0  0  0
  7 23  1  0  0  0  0
  7 24  1  0  0  0  0
  7 25  1  0  0  0  0
  9 26  1  0  0  0  0
 10 27  1  0  0  0  0
 12 28  1  0  0  0  0
 14 29  1  0  0  0  0
 14 30  1  0  0  0  0
 15 31  1  0  0  0  0
 15 32  1  0  0  0  0
 16 33  1  0  0  0  0
 16 34  1  0  0  0  0
 17 35  1  0  0  0  0
 17 36  1  0  0  0  0
 17 37  1  0  0  0  0
 18 38  1  0  0  0  0
 18 39  1  0  0  0  0
 18 40  1  0  0  0  0
 19 41  1  0  0  0  0
 19 42  1  0  0  0  0
 19 43  1  0  0  0  0
M  END
>  <energy>
-2.1321001180170711

$$$$
