c1cc2c(cn1C)c1c(cc2)n(ccc1)C
                    3D

 30 32  0  0  0  0  0  0  0  0999 V2000
   -3.5473    0.3086   -0.2020 C   0  0  0  0  0  0  0  0  0  0  0  0
   -2.7951    1.1966    0.4693 C   0  0  0  0  0  0  0  0  0  0  0  0
   -1.3517    0.9759    0.5091 C   0  0  0  0  0  0  0  0  0  0  0  0
   -0.7502   -0.1886   -0.1914 C   0  0  0  0  0  0  0  0  0  0  0  0
   -1.6304   -0.9978   -0.8262 C   0  0  0  0  0  0  0  0  0  0  0  0
   -3.0221   -0.8106   -0.8471 N   0  0  0  0  0  0  0  0  0  0  0  0
   -3.8822   -1.7027   -1.6226 C   0  0  0  0  0  0  0  0  0  0  0  0
    0.7197   -0.3764   -0.1520 C   0  0  0  0  0  0  0  0  0  0  0  0
    1.5543    0.6194    0.6083 C   0  0  0  0  0  0  0  0  0  0  0  0
    0.9027    1.6381    1.2144 C   0  0  0  0  0  0  0  0  0  0  0  0
   -0.5372    1.8222    1.1662 C   0  0  0  0  0  0  0  0  0  0  0  0
    2.9593    0.4267    0.6397 N   0  0  0  0  0  0  0  0  0  0  0  0
    3.5090   -0.6632   -0.0293 C   0  0  0  0  0  0  0  0  0  0  0  0
    2.7854   -1.5598   -0.7106 C   0  0  0  0  0  0  0  0  0  0  0  0
    1.3484   -1.4044   -0.7672 C   0  0  0  0  0  0  0  0  0  0  0  0
    3.8419    1.3558    1.3517 C   0  0  0  0  0  0  0  0  0  0  0  0
   -4.6244    0.4226   -0.2751 H   0  0  0  0  0  0  0  0  0  0  0  0
   -3.2350    2.0551    0.9605 H   0  0  0  0  0  0  0  0  0  0  0  0
   -1.3221   -1.8761   -1.3796 H   0  0  0  0  0  0  0  0  0  0  0  0
   -3.8782   -1.4053   -2.6765 H   0  0  0  0  0  0  0  0  0  0  0  0
   -4.9161   -1.6785   -1.2605 H   0  0  0  0  0  0  0  0  0  0  0  0
   -3.5379   -2.7404   -1.5513 H   0  0  0  0  0  0  0  0  0  0  0  0
    1.4422    2.3894    1.7794 H   0  0  0  0  0  0  0  0  0  0  0  0
   -0.9309    2.6892    1.6881 H   0  0  0  0  0  0  0  0  0  0  0  0
    4.5896   -0.7521    0.0298 H   0  0  0  0  0  0  0  0  0  0  0  0
    3.2475   -2.3962   -1.2206 H   0  0  0  0  0  0  0  0  0  0  0  0
    0.8213   -2.1629   -1.3315 H   0  0  0  0  0  0  0  0  0  0  0  0
    4.8937    1.0527    1.2946 H   0  0  0  0  0  0  0  0  0  0  0  0
    3.5764    1.4024    2.4136 H   0  0  0  0  0  0  0  0  0  0  0  0
    3.7698    2.3597    0.9194 H   0  0  0  0  0  0  0  0  0  0  0  0
  2  1  2  0  0  0  0
  3  2  1  0  0  0  0
  4  3  1  0  0  0  0
  5  4  2  0  0  0  0
  6  5  1  0  0  0  0
  6  1  1  0  0  0  0
  7  6  1  0  0  0  0
  8  4  1  0  0  0  0
  9  8  1  0  0  0  0
 10  9  2  0  0  0  0
 11 10  1  0  0  0  0
 11  3  2  0  0  0  0
 12  9  1  0  0  0  0
 13 12  1  0  0  0  0
 14 13  2  0  0  0  0
 15 14  1  0  0  0  0
 15  8  2  0  0  0  0
 16 12  1  0  0  0  0
  1 17  1  0  0  0  0
  2 18  1  0  0  0  0
  5 19  1  0  0  0  0
  7 20  1  0  0  0  0
  7 21  1  0  0  0  0
  7 22  1  0  0  0  0
 10 23  1  0  0  0  0
 11 24  1  0  0  0  0
 13 25  1  0  0  0  0
 14 26  1  0  0  0  0
 15 27  1  0  0  0  0
 16 28  1  0  0  0  0
 16 29  1  0  0  0  0
 16 30  1  0  0  0  0
M  END
>  <energy>
70.337991529534833

$$$$
