C1C=CNC(=C1)C1=CCC=CN1
                    3D

 24 25  0  0  0  0  0  0  0  0999 V2000
   -3.1195   -0.4124   -0.4505 C   0  0  0  0  0  0  0  0  0  0  0  0
   -3.4478    0.6939    0.5223 C   0  0  0  0  0  0  0  0  0  0  0  0
   -2.4679    1.3563    1.1523 C   0  0  0  0  0  0  0  0  0  0  0  0
   -1.1492    1.0467    0.9560 N   0  0  0  0  0  0  0  0  0  0  0  0
   -0.7247    0.0933    0.0446 C   0  0  0  0  0  0  0  0  0  0  0  0
   -1.6359   -0.6346   -0.6331 C   0  0  0  0  0  0  0  0  0  0  0  0
    0.7162   -0.1095   -0.1012 C   0  0  0  0  0  0  0  0  0  0  0  0
    1.3245   -0.1970   -1.3022 C   0  0  0  0  0  0  0  0  0  0  0  0
    2.8184   -0.3922   -1.4204 C   0  0  0  0  0  0  0  0  0  0  0  0
    3.5190   -0.4994   -0.0877 C   0  0  0  0  0  0  0  0  0  0  0  0
    2.8254   -0.3930    1.0539 C   0  0  0  0  0  0  0  0  0  0  0  0
    1.4756   -0.1663    1.0566 N   0  0  0  0  0  0  0  0  0  0  0  0
   -3.5791   -1.3435   -0.1005 H   0  0  0  0  0  0  0  0  0  0  0  0
   -3.5606   -0.1682   -1.4236 H   0  0  0  0  0  0  0  0  0  0  0  0
   -4.4879    0.9465    0.6917 H   0  0  0  0  0  0  0  0  0  0  0  0
   -2.6578    2.1675    1.8473 H   0  0  0  0  0  0  0  0  0  0  0  0
   -0.4370    1.6795    1.3064 H   0  0  0  0  0  0  0  0  0  0  0  0
   -1.3310   -1.4100   -1.3275 H   0  0  0  0  0  0  0  0  0  0  0  0
    0.7585   -0.1223   -2.2242 H   0  0  0  0  0  0  0  0  0  0  0  0
    3.0088   -1.3070   -1.9929 H   0  0  0  0  0  0  0  0  0  0  0  0
    3.2445    0.4471   -1.9811 H   0  0  0  0  0  0  0  0  0  0  0  0
    4.5885   -0.6741   -0.0746 H   0  0  0  0  0  0  0  0  0  0  0  0
    3.2857   -0.4794    2.0327 H   0  0  0  0  0  0  0  0  0  0  0  0
    0.9604   -0.2700    1.9251 H   0  0  0  0  0  0  0  0  0  0  0  0
  2  1  1  0  0  0  0
  3  2  2  0  0  0  0
  4  3  1  0  0  0  0
  5  4  1  0  0  0  0
  6  5  2  0  0  0  0
  6  1  1  0  0  0  0
  7  5  1  0  0  0  0
  8  7  2  0  0  0  0
  9  8  1  0  0  0  0
 10  9  1  0  0  0  0
 11 10  2  0  0  0  0
 12 11  1  0  0  0  0
 12  7  1  0  0  0  0
  1 13  1  0  0  0  0
  1 14  1  0  0  0  0
  2 15  1  0  0  0  0
  3 16  1  0  0  0  0
  4 17  1  0  0  0  0
  6 18  1  0  0  0  0
  8 19  1  0  0  0  0
  9 20  1  0  0  0  0
  9 21  1  0  0  0  0
 10 22  1  0  0  0  0
 11 23  1  0  0  0  0
 12 24  1  0  0  0  0
M  END
>  <energy>
-21.355813723198882

$$$$
C1C=CNC(=C1)C1=CCC=CN1
                    3D

 24 25  0  0  0  0  0  0  0  0999 V2000
   -2.8287    1.2953   -0.5871 C   0  0  0  0  0  0  0  0  0  0  0  0
   -3.4823    0.5289    0.5364 C   0  0  0  0  0  0  0  0  0  0  0  0
   -2.7665   -0.3272    1.2784 C   0  0  0  0  0  0  0  0  0  0  0  0
   -1.4356   -0.5454    1.0423 N   0  0  0  0  0  0  0  0  0  0  0  0
   -0.7174    0.1302    0.0703 C   0  0  0  0  0  0  0  0  0  0  0  0
   -1.3489    1.0202   -0.7241 C   0  0  0  0  0  0  0  0  0  0  0  0
    0.7203   -0.1173   -0.0561 C   0  0  0  0  0  0  0  0  0  0  0  0
    1.2173   -1.3718   -0.0994 C   0  0  0  0  0  0  0  0  0  0  0  0
    2.7016   -1.6347   -0.2073 C   0  0  0  0  0  0  0  0  0  0  0  0
    3.5363   -0.3780   -0.2064 C   0  0  0  0  0  0  0  0  0  0  0  0
    2.9498    0.8252   -0.1507 C   0  0  0  0  0  0  0  0  0  0  0  0
    1.5883    0.9604   -0.1057 N   0  0  0  0  0  0  0  0  0  0  0  0
   -3.3262    1.0408   -1.5295 H   0  0  0  0  0  0  0  0  0  0  0  0
   -2.9737    2.3673   -0.4129 H   0  0  0  0  0  0  0  0  0  0  0  0
   -4.5363    0.6892    0.7328 H   0  0  0  0  0  0  0  0  0  0  0  0
   -3.1932   -0.8918    2.1012 H   0  0  0  0  0  0  0  0  0  0  0  0
   -0.9068   -1.1069    1.7000 H   0  0  0  0  0  0  0  0  0  0  0  0
   -0.8127    1.5563   -1.5001 H   0  0  0  0  0  0  0  0  0  0  0  0
    0.5593   -2.2342   -0.0728 H   0  0  0  0  0  0  0  0  0  0  0  0
    3.0095   -2.2618    0.6367 H   0  0  0  0  0  0  0  0  0  0  0  0
    2.8982   -2.1946   -1.1285 H   0  0  0  0  0  0  0  0  0  0  0  0
    4.6155   -0.4696   -0.2448 H   0  0  0  0  0  0  0  0  0  0  0  0
    3.5113    1.7539   -0.1370 H   0  0  0  0  0  0  0  0  0  0  0  0
    1.1921    1.8792    0.0571 H   0  0  0  0  0  0  0  0  0  0  0  0
  2  1  1  0  0  0  0
  3  2  2  0  0  0  0
  4  3  1  0  0  0  0
  5  4  1  0  0  0  0
  6  5  2  0  0  0  0
  6  1  1  0  0  0  0
  7  5  1  0  0  0  0
  8  7  2  0  0  0  0
  9  8  1  0  0  0  0
 10  9  1  0  0  0  0
 11 10  2  0  0  0  0
 12 11  1  0  0  0  0
 12  7  1  0  0  0  0
  1 13  1  0  0  0  0
  1 14  1  0  0  0  0
  2 15  1  0  0  0  0
  3 16  1  0  0  0  0
  4 17  1  0  0  0  0
  6 18  1  0  0  0  0
  8 19  1  0  0  0  0
  9 20  1  0  0  0  0
  9 21  1  0  0  0  0
 10 22  1  0  0  0  0
 11 23  1  0  0  0  0
 12 24  1  0  0  0  0
M  END
>  <energy>
-19.55720638416069

$$$$
