N1(C=C[C@H](C=C1C#N)[C@@H]1C=CN(C(=C1)C#N)C)C
                    3D

 32 33  0  0  0  0  0  0  0  0999 V2000
    3.3072    0.9141    0.2922 N   0  0  0  0  0  0  0  0  0  0  0  0
    2.6943    0.9412   -0.9545 C   0  0  0  0  0  0  0  0  0  0  0  0
    1.3751    0.8073   -1.1386 C   0  0  0  0  0  0  0  0  0  0  0  0
    0.4172    0.5748    0.0224 C   0  0  0  0  0  0  0  0  0  0  0  0
    1.1495    0.6954    1.3552 C   0  0  0  0  0  0  0  0  0  0  0  0
    2.4869    0.8412    1.4351 C   0  0  0  0  0  0  0  0  0  0  0  0
    3.1160    0.9541    2.7179 C   0  0  0  0  0  0  0  0  0  0  0  0
    3.6347    1.0536    3.7525 N   0  0  0  0  0  0  0  0  0  0  0  0
   -0.3639   -0.7831   -0.1262 C   0  0  0  0  0  0  0  0  0  0  0  0
   -1.2027   -0.7990   -1.3979 C   0  0  0  0  0  0  0  0  0  0  0  0
   -2.5419   -0.8390   -1.3579 C   0  0  0  0  0  0  0  0  0  0  0  0
   -3.2786   -0.9087   -0.1817 N   0  0  0  0  0  0  0  0  0  0  0  0
   -2.5816   -1.1061    1.0257 C   0  0  0  0  0  0  0  0  0  0  0  0
   -1.2356   -1.0803    1.0909 C   0  0  0  0  0  0  0  0  0  0  0  0
   -3.3510   -1.3535    2.2120 C   0  0  0  0  0  0  0  0  0  0  0  0
   -3.9750   -1.5461    3.1713 N   0  0  0  0  0  0  0  0  0  0  0  0
   -4.7495   -0.9304   -0.2433 C   0  0  0  0  0  0  0  0  0  0  0  0
    4.7564    1.1441    0.3959 C   0  0  0  0  0  0  0  0  0  0  0  0
    3.3585    1.0952   -1.8022 H   0  0  0  0  0  0  0  0  0  0  0  0
    0.9717    0.8761   -2.1419 H   0  0  0  0  0  0  0  0  0  0  0  0
   -0.3105    1.3991   -0.0110 H   0  0  0  0  0  0  0  0  0  0  0  0
    0.5482    0.6890    2.2605 H   0  0  0  0  0  0  0  0  0  0  0  0
    0.3632   -1.6049   -0.2076 H   0  0  0  0  0  0  0  0  0  0  0  0
   -0.6984   -0.7741   -2.3570 H   0  0  0  0  0  0  0  0  0  0  0  0
   -3.1275   -0.8276   -2.2734 H   0  0  0  0  0  0  0  0  0  0  0  0
   -0.7320   -1.2854    2.0304 H   0  0  0  0  0  0  0  0  0  0  0  0
   -5.1253   -1.9475   -0.0790 H   0  0  0  0  0  0  0  0  0  0  0  0
   -5.1174   -0.5866   -1.2189 H   0  0  0  0  0  0  0  0  0  0  0  0
   -5.1805   -0.2599    0.5099 H   0  0  0  0  0  0  0  0  0  0  0  0
    5.2467    1.0696   -0.5804 H   0  0  0  0  0  0  0  0  0  0  0  0
    5.2270    0.3987    1.0457 H   0  0  0  0  0  0  0  0  0  0  0  0
    4.9601    2.1428    0.7994 H   0  0  0  0  0  0  0  0  0  0  0  0
  2  1  1  0  0  0  0
  3  2  2  0  0  0  0
  4  3  1  0  0  0  0
  5  4  1  0  0  0  0
  6  5  2  0  0  0  0
  6  1  1  0  0  0  0
  7  6  1  0  0  0  0
  8  7  3  0  0  0  0
  9  4  1  0  0  0  0
 10  9  1  0  0  0  0
 11 10  2  0  0  0  0
 12 11  1  0  0  0  0
 13 12  1  0  0  0  0
 14 13  2  0  0  0  0
 14  9  1  0  0  0  0
 15 13  1  0  0  0  0
 16 15  3  0  0  0  0
 17 12  1  0  0  0  0
 18  1  1  0  0  0  0
  2 19  1  0  0  0  0
  3 20  1  0  0  0  0
  4 21  1  0  0  0  0
  5 22  1  0  0  0  0
  9 23  1  0  0  0  0
 10 24  1  0  0  0  0
 11 25  1  0  0  0  0
 14 26  1  0  0  0  0
 17 27  1  0  0  0  0
 17 28  1  0  0  0  0
 17 29  1  0  0  0  0
 18 30  1  0  0  0  0
 18 31  1  0  0  0  0
 18 32  1  0  0  0  0
M  END
>  <energy>
66.800108655316592

$$$$
N1(C=C[C@H](C=C1C#N)[C@@H]1C=CN(C(=C1)C#N)C)C
                    3D

 32 33  0  0  0  0  0  0  0  0999 V2000
   -2.1675   -1.2855   -0.4067 N   0  0  0  0  0  0  0  0  0  0  0  0
   -0.9052   -1.8617   -0.3647 C   0  0  0  0  0  0  0  0  0  0  0  0
   -0.1113   -1.8149    0.7060 C   0  0  0  0  0  0  0  0  0  0  0  0
   -0.5042   -1.0094    1.9278 C   0  0  0  0  0  0  0  0  0  0  0  0
   -1.9848   -0.6760    1.9254 C   0  0  0  0  0  0  0  0  0  0  0  0
   -2.7132   -0.7791    0.7947 C   0  0  0  0  0  0  0  0  0  0  0  0
   -4.0765   -0.3398    0.7818 C   0  0  0  0  0  0  0  0  0  0  0  0
   -5.1747    0.0362    0.7397 N   0  0  0  0  0  0  0  0  0  0  0  0
    0.3747    0.2936    2.0922 C   0  0  0  0  0  0  0  0  0  0  0  0
    0.0028    1.4211    1.1386 C   0  0  0  0  0  0  0  0  0  0  0  0
    0.9018    1.9763    0.3150 C   0  0  0  0  0  0  0  0  0  0  0  0
    2.2202    1.5533    0.2125 N   0  0  0  0  0  0  0  0  0  0  0  0
    2.6563    0.5193    1.0670 C   0  0  0  0  0  0  0  0  0  0  0  0
    1.8535   -0.0495    1.9872 C   0  0  0  0  0  0  0  0  0  0  0  0
    3.9902    0.0223    0.8825 C   0  0  0  0  0  0  0  0  0  0  0  0
    5.0597   -0.3970    0.7000 N   0  0  0  0  0  0  0  0  0  0  0  0
    3.1325    2.1863   -0.7483 C   0  0  0  0  0  0  0  0  0  0  0  0
   -2.8965   -1.2160   -1.6797 C   0  0  0  0  0  0  0  0  0  0  0  0
   -0.5804   -2.3719   -1.2645 H   0  0  0  0  0  0  0  0  0  0  0  0
    0.8553   -2.3079    0.6928 H   0  0  0  0  0  0  0  0  0  0  0  0
   -0.3253   -1.6530    2.8009 H   0  0  0  0  0  0  0  0  0  0  0  0
   -2.4090   -0.2723    2.8410 H   0  0  0  0  0  0  0  0  0  0  0  0
    0.1968    0.6806    3.1084 H   0  0  0  0  0  0  0  0  0  0  0  0
   -1.0107    1.8001    1.1340 H   0  0  0  0  0  0  0  0  0  0  0  0
    0.6132    2.7932   -0.3438 H   0  0  0  0  0  0  0  0  0  0  0  0
    2.2189   -0.8417    2.6336 H   0  0  0  0  0  0  0  0  0  0  0  0
    2.6105    2.9027   -1.3910 H   0  0  0  0  0  0  0  0  0  0  0  0
    3.5864    1.4342   -1.4062 H   0  0  0  0  0  0  0  0  0  0  0  0
    3.9356    2.7194   -0.2254 H   0  0  0  0  0  0  0  0  0  0  0  0
   -3.1646   -0.1798   -1.9000 H   0  0  0  0  0  0  0  0  0  0  0  0
   -3.7996   -1.8283   -1.6357 H   0  0  0  0  0  0  0  0  0  0  0  0
   -2.2846   -1.5803   -2.5077 H   0  0  0  0  0  0  0  0  0  0  0  0
  2  1  1  0  0  0  0
  3  2  2  0  0  0  0
  4  3  1  0  0  0  0
  5  4  1  0  0  0  0
  6  5  2  0  0  0  0
  6  1  1  0  0  0  0
  7  6  1  0  0  0  0
  8  7  3  0  0  0  0
  9  4  1  0  0  0  0
 10  9  1  0  0  0  0
 11 10  2  0  0  0  0
 12 11  1  0  0  0  0
 13 12  1  0  0  0  0
 14 13  2  0  0  0  0
 14  9  1  0  0  0  0
 15 13  1  0  0  0  0
 16 15  3  0  0  0  0
 17 12  1  0  0  0  0
 18  1  1  0  0  0  0
  2 19  1  0  0  0  0
  3 20  1  0  0  0  0
  4 21  1  0  0  0  0
  5 22  1  0  0  0  0
  9 23  1  0  0  0  0
 10 24  1  0  0  0  0
 11 25  1  0  0  0  0
 14 26  1  0  0  0  0
 17 27  1  0  0  0  0
 17 28  1  0  0  0  0
 17 29  1  0  0  0  0
 18 30  1  0  0  0  0
 18 31  1  0  0  0  0
 18 32  1  0  0  0  0
M  END
>  <energy>
68.641732960495574

$$$$
