C1(=CN2C(=C[C@@H]1C)C1=C[C@@H](C(=CN1CCCC2)C)C)C
                    3D

 46 48  0  0  0  0  0  0  0  0999 V2000
    1.7935    2.8563   -0.3859 C   0  0  0  0  0  0  0  0  0  0  0  0
    2.2916    1.6282   -0.1634 C   0  0  0  0  0  0  0  0  0  0  0  0
    1.5243    0.5051    0.1402 N   0  0  0  0  0  0  0  0  0  0  0  0
    0.1293    0.6478    0.2702 C   0  0  0  0  0  0  0  0  0  0  0  0
   -0.4703    1.8406    0.0642 C   0  0  0  0  0  0  0  0  0  0  0  0
    0.2918    3.0849   -0.3326 C   0  0  0  0  0  0  0  0  0  0  0  0
   -0.2472    3.5896   -1.6753 C   0  0  0  0  0  0  0  0  0  0  0  0
   -0.7109   -0.5142    0.6036 C   0  0  0  0  0  0  0  0  0  0  0  0
   -1.3208   -0.5552    1.8072 C   0  0  0  0  0  0  0  0  0  0  0  0
   -2.1893   -1.7135    2.2490 C   0  0  0  0  0  0  0  0  0  0  0  0
   -2.3779   -2.7508    1.1546 C   0  0  0  0  0  0  0  0  0  0  0  0
   -1.7211   -2.6187   -0.0107 C   0  0  0  0  0  0  0  0  0  0  0  0
   -0.8670   -1.5634   -0.3235 N   0  0  0  0  0  0  0  0  0  0  0  0
   -0.1448   -1.5735   -1.6111 C   0  0  0  0  0  0  0  0  0  0  0  0
    1.1725   -2.3429   -1.4896 C   0  0  0  0  0  0  0  0  0  0  0  0
    2.3706   -1.5131   -1.0205 C   0  0  0  0  0  0  0  0  0  0  0  0
    2.1909   -0.7994    0.3209 C   0  0  0  0  0  0  0  0  0  0  0  0
   -3.3342   -3.8781    1.4053 C   0  0  0  0  0  0  0  0  0  0  0  0
   -1.5880   -2.3367    3.5132 C   0  0  0  0  0  0  0  0  0  0  0  0
    2.6805    4.0361   -0.6508 C   0  0  0  0  0  0  0  0  0  0  0  0
    3.3618    1.4415   -0.1992 H   0  0  0  0  0  0  0  0  0  0  0  0
   -1.5482    1.9320    0.1617 H   0  0  0  0  0  0  0  0  0  0  0  0
    0.0911    3.8458    0.4330 H   0  0  0  0  0  0  0  0  0  0  0  0
   -0.0415    2.8791   -2.4851 H   0  0  0  0  0  0  0  0  0  0  0  0
   -1.3315    3.7426   -1.6316 H   0  0  0  0  0  0  0  0  0  0  0  0
    0.2008    4.5504   -1.9497 H   0  0  0  0  0  0  0  0  0  0  0  0
   -1.1883    0.2602    2.5133 H   0  0  0  0  0  0  0  0  0  0  0  0
   -3.1756   -1.2998    2.4983 H   0  0  0  0  0  0  0  0  0  0  0  0
   -1.8355   -3.3508   -0.8051 H   0  0  0  0  0  0  0  0  0  0  0  0
    0.0149   -0.5666   -2.0141 H   0  0  0  0  0  0  0  0  0  0  0  0
   -0.7706   -2.0749   -2.3617 H   0  0  0  0  0  0  0  0  0  0  0  0
    1.4266   -2.7446   -2.4790 H   0  0  0  0  0  0  0  0  0  0  0  0
    1.0546   -3.2103   -0.8286 H   0  0  0  0  0  0  0  0  0  0  0  0
    2.6376   -0.7939   -1.8042 H   0  0  0  0  0  0  0  0  0  0  0  0
    3.2234   -2.1979   -0.9299 H   0  0  0  0  0  0  0  0  0  0  0  0
    1.6783   -1.4362    1.0508 H   0  0  0  0  0  0  0  0  0  0  0  0
    3.1850   -0.6260    0.7550 H   0  0  0  0  0  0  0  0  0  0  0  0
   -2.9535   -4.5485    2.1815 H   0  0  0  0  0  0  0  0  0  0  0  0
   -4.3058   -3.4883    1.7251 H   0  0  0  0  0  0  0  0  0  0  0  0
   -3.5037   -4.4772    0.5047 H   0  0  0  0  0  0  0  0  0  0  0  0
   -1.4308   -1.5806    4.2905 H   0  0  0  0  0  0  0  0  0  0  0  0
   -0.6207   -2.8107    3.3083 H   0  0  0  0  0  0  0  0  0  0  0  0
   -2.2513   -3.0981    3.9366 H   0  0  0  0  0  0  0  0  0  0  0  0
    2.4625    4.8424    0.0569 H   0  0  0  0  0  0  0  0  0  0  0  0
    2.5331    4.4132   -1.6670 H   0  0  0  0  0  0  0  0  0  0  0  0
    3.7405    3.7815   -0.5445 H   0  0  0  0  0  0  0  0  0  0  0  0
  2  1  2  0  0  0  0
  3  2  1  0  0  0  0
  4  3  1  0  0  0  0
  5  4  2  0  0  0  0
  6  5  1  0  0  0  0
  6  1  1  0  0  0  0
  7  6  1  0  0  0  0
  8  4  1  0  0  0  0
  9  8  2  0  0  0  0
 10  9  1  0  0  0  0
 11 10  1  0  0  0  0
 12 11  2  0  0  0  0
 13 12  1  0  0  0  0
 13  8  1  0  0  0  0
 14 13  1  0  0  0  0
 15 14  1  0  0  0  0
 16 15  1  0  0  0  0
 17 16  1  0  0  0  0
 17  3  1  0  0  0  0
 18 11  1  0  0  0  0
 19 10  1  0  0  0  0
 20  1  1  0  0  0  0
  2 21  1  0  0  0  0
  5 22  1  0  0  0  0
  6 23  1  0  0  0  0
  7 24  1  0  0  0  0
  7 25  1  0  0  0  0
  7 26  1  0  0  0  0
  9 27  1  0  0  0  0
 10 28  1  0  0  0  0
 12 29  1  0  0  0  0
 14 30  1  0  0  0  0
 14 31  1  0  0  0  0
 15 32  1  0  0  0  0
 15 33  1  0  0  0  0
 16 34  1  0  0  0  0
 16 35  1  0  0  0  0
 17 36  1  0  0  0  0
 17 37  1  0  0  0  0
 18 38  1  0  0  0  0
 18 39  1  0  0  0  0
 18 40  1  0  0  0  0
 19 41  1  0  0  0  0
 19 42  1  0  0  0  0
 19 43  1  0  0  0  0
 20 44  1  0  0  0  0
 20 45  1  0  0  0  0
 20 46  1  0  0  0  0
M  END
>  <energy>
1.5314472437903817

$$$$
