C1=CN2C(=C[C@@H]1C)C1=C[C@@H](C=CN1CCCC2)C
                    3D

 40 42  0  0  0  0  0  0  0  0999 V2000
   -3.6459    0.2316   -0.3538 C   0  0  0  0  0  0  0  0  0  0  0  0
   -2.9286   -0.8861   -0.1763 C   0  0  0  0  0  0  0  0  0  0  0  0
   -1.5508   -0.8958    0.0095 N   0  0  0  0  0  0  0  0  0  0  0  0
   -0.8435    0.3277   -0.0070 C   0  0  0  0  0  0  0  0  0  0  0  0
   -1.4852    1.5029   -0.1830 C   0  0  0  0  0  0  0  0  0  0  0  0
   -2.9830    1.5881   -0.3656 C   0  0  0  0  0  0  0  0  0  0  0  0
   -3.5927    2.4787    0.7171 C   0  0  0  0  0  0  0  0  0  0  0  0
    0.6129    0.3176    0.2140 C   0  0  0  0  0  0  0  0  0  0  0  0
    1.0696    0.8269    1.3808 C   0  0  0  0  0  0  0  0  0  0  0  0
    2.5198    0.7724    1.7897 C   0  0  0  0  0  0  0  0  0  0  0  0
    3.3640    0.0267    0.7909 C   0  0  0  0  0  0  0  0  0  0  0  0
    2.8324   -0.4480   -0.3429 C   0  0  0  0  0  0  0  0  0  0  0  0
    1.4870   -0.3253   -0.6969 N   0  0  0  0  0  0  0  0  0  0  0  0
    1.1121   -0.6044   -2.1000 C   0  0  0  0  0  0  0  0  0  0  0  0
   -0.0868   -1.5194   -2.3481 C   0  0  0  0  0  0  0  0  0  0  0  0
   -0.3663   -2.6281   -1.3319 C   0  0  0  0  0  0  0  0  0  0  0  0
   -0.8180   -2.1747    0.0621 C   0  0  0  0  0  0  0  0  0  0  0  0
    3.0635    2.1856    1.9980 C   0  0  0  0  0  0  0  0  0  0  0  0
   -4.7185    0.1749   -0.5038 H   0  0  0  0  0  0  0  0  0  0  0  0
   -3.4005   -1.8641   -0.1770 H   0  0  0  0  0  0  0  0  0  0  0  0
   -0.9268    2.4341   -0.1977 H   0  0  0  0  0  0  0  0  0  0  0  0
   -3.1751    2.0468   -1.3436 H   0  0  0  0  0  0  0  0  0  0  0  0
   -3.1520    3.4819    0.6949 H   0  0  0  0  0  0  0  0  0  0  0  0
   -4.6731    2.5899    0.5715 H   0  0  0  0  0  0  0  0  0  0  0  0
   -3.4309    2.0645    1.7193 H   0  0  0  0  0  0  0  0  0  0  0  0
    0.3763    1.2635    2.0944 H   0  0  0  0  0  0  0  0  0  0  0  0
    2.5766    0.2326    2.7433 H   0  0  0  0  0  0  0  0  0  0  0  0
    4.4188   -0.1126    1.0011 H   0  0  0  0  0  0  0  0  0  0  0  0
    3.4570   -0.9647   -1.0661 H   0  0  0  0  0  0  0  0  0  0  0  0
    1.9646   -1.0646   -2.6184 H   0  0  0  0  0  0  0  0  0  0  0  0
    0.9501    0.3501   -2.6184 H   0  0  0  0  0  0  0  0  0  0  0  0
   -0.9860   -0.9087   -2.4938 H   0  0  0  0  0  0  0  0  0  0  0  0
    0.0636   -1.9944   -3.3276 H   0  0  0  0  0  0  0  0  0  0  0  0
   -1.1656   -3.2538   -1.7513 H   0  0  0  0  0  0  0  0  0  0  0  0
    0.5070   -3.2843   -1.2360 H   0  0  0  0  0  0  0  0  0  0  0  0
   -1.4535   -2.9560    0.5009 H   0  0  0  0  0  0  0  0  0  0  0  0
    0.0387   -2.1169    0.7439 H   0  0  0  0  0  0  0  0  0  0  0  0
    2.4744    2.7265    2.7477 H   0  0  0  0  0  0  0  0  0  0  0  0
    3.0404    2.7692    1.0698 H   0  0  0  0  0  0  0  0  0  0  0  0
    4.1010    2.1581    2.3501 H   0  0  0  0  0  0  0  0  0  0  0  0
  2  1  2  0  0  0  0
  3  2  1  0  0  0  0
  4  3  1  0  0  0  0
  5  4  2  0  0  0  0
  6  5  1  0  0  0  0
  6  1  1  0  0  0  0
  7  6  1  0  0  0  0
  8  4  1  0  0  0  0
  9  8  2  0  0  0  0
 10  9  1  0  0  0  0
 11 10  1  0  0  0  0
 12 11  2  0  0  0  0
 13 12  1  0  0  0  0
 13  8  1  0  0  0  0
 14 13  1  0  0  0  0
 15 14  1  0  0  0  0
 16 15  1  0  0  0  0
 17 16  1  0  0  0  0
 17  3  1  0  0  0  0
 18 10  1  0  0  0  0
  1 19  1  0  0  0  0
  2 20  1  0  0  0  0
  5 21  1  0  0  0  0
  6 22  1  0  0  0  0
  7 23  1  0  0  0  0
  7 24  1  0  0  0  0
  7 25  1  0  0  0  0
  9 26  1  0  0  0  0
 10 27  1  0  0  0  0
 11 28  1  0  0  0  0
 12 29  1  0  0  0  0
 14 30  1  0  0  0  0
 14 31  1  0  0  0  0
 15 32  1  0  0  0  0
 15 33  1  0  0  0  0
 16 34  1  0  0  0  0
 16 35  1  0  0  0  0
 17 36  1  0  0  0  0
 17 37  1  0  0  0  0
 18 38  1  0  0  0  0
 18 39  1  0  0  0  0
 18 40  1  0  0  0  0
M  END
>  <energy>
3.8934066631310955

$$$$
