c1ccc2c(c1)C(=O)C(=C(C2=O)C)C
                    3D

 24 25  0  0  0  0  0  0  0  0999 V2000
   -3.3990    1.0112    0.3873 C   0  0  0  0  0  0  0  0  0  0  0  0
   -3.5473   -0.1718   -0.3346 C   0  0  0  0  0  0  0  0  0  0  0  0
   -2.4208   -0.9094   -0.7020 C   0  0  0  0  0  0  0  0  0  0  0  0
   -1.1395   -0.4625   -0.3475 C   0  0  0  0  0  0  0  0  0  0  0  0
   -0.9911    0.7182    0.3688 C   0  0  0  0  0  0  0  0  0  0  0  0
   -2.1239    1.4576    0.7393 C   0  0  0  0  0  0  0  0  0  0  0  0
    0.3480    1.2012    0.7424 C   0  0  0  0  0  0  0  0  0  0  0  0
    0.4716    2.2385    1.3846 O   0  0  0  0  0  0  0  0  0  0  0  0
    1.5402    0.4011    0.3263 C   0  0  0  0  0  0  0  0  0  0  0  0
    1.3950   -0.7523   -0.3548 C   0  0  0  0  0  0  0  0  0  0  0  0
    0.0395   -1.2517   -0.7375 C   0  0  0  0  0  0  0  0  0  0  0  0
   -0.0989   -2.2946   -1.3677 O   0  0  0  0  0  0  0  0  0  0  0  0
    2.5126   -1.6603   -0.7901 C   0  0  0  0  0  0  0  0  0  0  0  0
    2.8498    1.0213    0.7306 C   0  0  0  0  0  0  0  0  0  0  0  0
   -4.2754    1.5876    0.6756 H   0  0  0  0  0  0  0  0  0  0  0  0
   -4.5396   -0.5214   -0.6111 H   0  0  0  0  0  0  0  0  0  0  0  0
   -2.5448   -1.8338   -1.2643 H   0  0  0  0  0  0  0  0  0  0  0  0
   -2.0164    2.3833    1.3024 H   0  0  0  0  0  0  0  0  0  0  0  0
    3.4765   -1.4112   -0.3420 H   0  0  0  0  0  0  0  0  0  0  0  0
    2.6266   -1.6233   -1.8785 H   0  0  0  0  0  0  0  0  0  0  0  0
    2.3026   -2.6958   -0.4987 H   0  0  0  0  0  0  0  0  0  0  0  0
    3.7167    0.5601    0.2528 H   0  0  0  0  0  0  0  0  0  0  0  0
    2.8784    2.0795    0.4481 H   0  0  0  0  0  0  0  0  0  0  0  0
    2.9829    0.9482    1.8152 H   0  0  0  0  0  0  0  0  0  0  0  0
  2  1  2  0  0  0  0
  3  2  1  0  0  0  0
  4  3  2  0  0  0  0
  5  4  1  0  0  0  0
  6  5  2  0  0  0  0
  6  1  1  0  0  0  0
  7  5  1  0  0  0  0
  8  7  2  0  0  0  0
  9  7  1  0  0  0  0
 10  9  2  0  0  0  0
 11 10  1  0  0  0  0
 11  4  1  0  0  0  0
 12 11  2  0  0  0  0
 13 10  1  0  0  0  0
 14  9  1  0  0  0  0
  1 15  1  0  0  0  0
  2 16  1  0  0  0  0
  3 17  1  0  0  0  0
  6 18  1  0  0  0  0
 13 19  1  0  0  0  0
 13 20  1  0  0  0  0
 13 21  1  0  0  0  0
 14 22  1  0  0  0  0
 14 23  1  0  0  0  0
 14 24  1  0  0  0  0
M  END
>  <energy>
38.887786653168995

$$$$
