c1cc2c(n(c1)C)c1c(cc2)cccn1C
                    3D

 30 32  0  0  0  0  0  0  0  0999 V2000
   -3.2567   -0.6338    1.2219 C   0  0  0  0  0  0  0  0  0  0  0  0
   -2.4501   -1.7715    0.8485 C   0  0  0  0  0  0  0  0  0  0  0  0
   -1.2174   -1.6155    0.3167 C   0  0  0  0  0  0  0  0  0  0  0  0
   -0.6586   -0.2290    0.1261 C   0  0  0  0  0  0  0  0  0  0  0  0
   -1.5930    0.8392    0.2849 N   0  0  0  0  0  0  0  0  0  0  0  0
   -2.8182    0.5897    0.9047 C   0  0  0  0  0  0  0  0  0  0  0  0
   -1.5012    2.0481   -0.5477 C   0  0  0  0  0  0  0  0  0  0  0  0
    0.6817   -0.1163   -0.1553 C   0  0  0  0  0  0  0  0  0  0  0  0
    1.4039   -1.3630   -0.6025 C   0  0  0  0  0  0  0  0  0  0  0  0
    0.7972   -2.6827   -0.4915 C   0  0  0  0  0  0  0  0  0  0  0  0
   -0.4589   -2.8047   -0.0468 C   0  0  0  0  0  0  0  0  0  0  0  0
    2.6416   -1.2643   -1.1346 C   0  0  0  0  0  0  0  0  0  0  0  0
    3.3012    0.0130   -1.2669 C   0  0  0  0  0  0  0  0  0  0  0  0
    2.7193    1.0907   -0.7285 C   0  0  0  0  0  0  0  0  0  0  0  0
    1.4762    1.0684   -0.0951 N   0  0  0  0  0  0  0  0  0  0  0  0
    1.2331    2.0890    0.9348 C   0  0  0  0  0  0  0  0  0  0  0  0
   -4.2183   -0.7942    1.6934 H   0  0  0  0  0  0  0  0  0  0  0  0
   -2.8850   -2.7521    1.0109 H   0  0  0  0  0  0  0  0  0  0  0  0
   -3.4203    1.4732    1.0952 H   0  0  0  0  0  0  0  0  0  0  0  0
   -2.4104    2.1623   -1.1510 H   0  0  0  0  0  0  0  0  0  0  0  0
   -0.6673    2.0240   -1.2549 H   0  0  0  0  0  0  0  0  0  0  0  0
   -1.4071    2.9360    0.0860 H   0  0  0  0  0  0  0  0  0  0  0  0
    1.3688   -3.5611   -0.7702 H   0  0  0  0  0  0  0  0  0  0  0  0
   -0.9182   -3.7829    0.0434 H   0  0  0  0  0  0  0  0  0  0  0  0
    3.1914   -2.1351   -1.4764 H   0  0  0  0  0  0  0  0  0  0  0  0
    4.2722    0.0634   -1.7435 H   0  0  0  0  0  0  0  0  0  0  0  0
    3.2095    2.0595   -0.7356 H   0  0  0  0  0  0  0  0  0  0  0  0
    1.0031    3.0511    0.4663 H   0  0  0  0  0  0  0  0  0  0  0  0
    2.1289    2.2244    1.5535 H   0  0  0  0  0  0  0  0  0  0  0  0
    0.4261    1.8244    1.6240 H   0  0  0  0  0  0  0  0  0  0  0  0
  2  1  1  0  0  0  0
  3  2  2  0  0  0  0
  4  3  1  0  0  0  0
  5  4  1  0  0  0  0
  6  5  1  0  0  0  0
  6  1  2  0  0  0  0
  7  5  1  0  0  0  0
  8  4  2  0  0  0  0
  9  8  1  0  0  0  0
 10  9  1  0  0  0  0
 11 10  2  0  0  0  0
 11  3  1  0  0  0  0
 12  9  2  0  0  0  0
 13 12  1  0  0  0  0
 14 13  2  0  0  0  0
 15 14  1  0  0  0  0
 15  8  1  0  0  0  0
 16 15  1  0  0  0  0
  1 17  1  0  0  0  0
  2 18  1  0  0  0  0
  6 19  1  0  0  0  0
  7 20  1  0  0  0  0
  7 21  1  0  0  0  0
  7 22  1  0  0  0  0
 10 23  1  0  0  0  0
 11 24  1  0  0  0  0
 12 25  1  0  0  0  0
 13 26  1  0  0  0  0
 14 27  1  0  0  0  0
 16 28  1  0  0  0  0
 16 29  1  0  0  0  0
 16 30  1  0  0  0  0
M  END
>  <energy>
85.456224811653186

$$$$
