C1(=CN2C(=C[C@@H]1C)C1=C[C@@H](C(=CN1CC2)C)C)C
                    3D

 40 42  0  0  0  0  0  0  0  0999 V2000
    3.5660    0.4686    0.2270 C   0  0  0  0  0  0  0  0  0  0  0  0
    3.0164   -0.5533   -0.4497 C   0  0  0  0  0  0  0  0  0  0  0  0
    1.6501   -0.7558   -0.5800 N   0  0  0  0  0  0  0  0  0  0  0  0
    0.7326    0.1324    0.0247 C   0  0  0  0  0  0  0  0  0  0  0  0
    1.1962    1.1811    0.7410 C   0  0  0  0  0  0  0  0  0  0  0  0
    2.6700    1.5055    0.8821 C   0  0  0  0  0  0  0  0  0  0  0  0
    2.9280    2.9055    0.3147 C   0  0  0  0  0  0  0  0  0  0  0  0
   -0.7255   -0.1638   -0.0919 C   0  0  0  0  0  0  0  0  0  0  0  0
   -1.6695    0.7950    0.0389 C   0  0  0  0  0  0  0  0  0  0  0  0
   -3.1573    0.5172   -0.0497 C   0  0  0  0  0  0  0  0  0  0  0  0
   -3.4673   -0.9318   -0.3840 C   0  0  0  0  0  0  0  0  0  0  0  0
   -2.4619   -1.8108   -0.5254 C   0  0  0  0  0  0  0  0  0  0  0  0
   -1.1178   -1.4854   -0.4030 N   0  0  0  0  0  0  0  0  0  0  0  0
   -0.0779   -2.5112   -0.5935 C   0  0  0  0  0  0  0  0  0  0  0  0
    1.1278   -1.9130   -1.3266 C   0  0  0  0  0  0  0  0  0  0  0  0
   -4.9003   -1.3209   -0.5949 C   0  0  0  0  0  0  0  0  0  0  0  0
   -3.8160    0.9496    1.2653 C   0  0  0  0  0  0  0  0  0  0  0  0
    5.0484    0.6035    0.4027 C   0  0  0  0  0  0  0  0  0  0  0  0
    3.6331   -1.3085   -0.9289 H   0  0  0  0  0  0  0  0  0  0  0  0
    0.5202    1.8431    1.2702 H   0  0  0  0  0  0  0  0  0  0  0  0
    2.8945    1.5177    1.9570 H   0  0  0  0  0  0  0  0  0  0  0  0
    2.2575    3.6455    0.7664 H   0  0  0  0  0  0  0  0  0  0  0  0
    2.7733    2.9313   -0.7704 H   0  0  0  0  0  0  0  0  0  0  0  0
    3.9531    3.2345    0.5166 H   0  0  0  0  0  0  0  0  0  0  0  0
   -1.3971    1.8302    0.2103 H   0  0  0  0  0  0  0  0  0  0  0  0
   -3.5545    1.1434   -0.8594 H   0  0  0  0  0  0  0  0  0  0  0  0
   -2.6526   -2.8518   -0.7690 H   0  0  0  0  0  0  0  0  0  0  0  0
   -0.4610   -3.3577   -1.1765 H   0  0  0  0  0  0  0  0  0  0  0  0
    0.2245   -2.8967    0.3878 H   0  0  0  0  0  0  0  0  0  0  0  0
    1.8941   -2.6898   -1.4381 H   0  0  0  0  0  0  0  0  0  0  0  0
    0.8403   -1.5862   -2.3337 H   0  0  0  0  0  0  0  0  0  0  0  0
   -5.4712   -1.2335    0.3346 H   0  0  0  0  0  0  0  0  0  0  0  0
   -4.9959   -2.3558   -0.9413 H   0  0  0  0  0  0  0  0  0  0  0  0
   -5.3617   -0.6768   -1.3509 H   0  0  0  0  0  0  0  0  0  0  0  0
   -3.5639    1.9880    1.5106 H   0  0  0  0  0  0  0  0  0  0  0  0
   -4.9080    0.8915    1.2023 H   0  0  0  0  0  0  0  0  0  0  0  0
   -3.4943    0.3207    2.1035 H   0  0  0  0  0  0  0  0  0  0  0  0
    5.2955    0.7094    1.4641 H   0  0  0  0  0  0  0  0  0  0  0  0
    5.5851   -0.2743    0.0264 H   0  0  0  0  0  0  0  0  0  0  0  0
    5.4280    1.4785   -0.1335 H   0  0  0  0  0  0  0  0  0  0  0  0
  2  1  2  0  0  0  0
  3  2  1  0  0  0  0
  4  3  1  0  0  0  0
  5  4  2  0  0  0  0
  6  5  1  0  0  0  0
  6  1  1  0  0  0  0
  7  6  1  0  0  0  0
  8  4  1  0  0  0  0
  9  8  2  0  0  0  0
 10  9  1  0  0  0  0
 11 10  1  0  0  0  0
 12 11  2  0  0  0  0
 13 12  1  0  0  0  0
 13  8  1  0  0  0  0
 14 13  1  0  0  0  0
 15 14  1  0  0  0  0
 15  3  1  0  0  0  0
 16 11  1  0  0  0  0
 17 10  1  0  0  0  0
 18  1  1  0  0  0  0
  2 19  1  0  0  0  0
  5 20  1  0  0  0  0
  6 21  1  0  0  0  0
  7 22  1  0  0  0  0
  7 23  1  0  0  0  0
  7 24  1  0  0  0  0
  9 25  1  0  0  0  0
 10 26  1  0  0  0  0
 12 27  1  0  0  0  0
 14 28  1  0  0  0  0
 14 29  1  0  0  0  0
 15 30  1  0  0  0  0
 15 31  1  0  0  0  0
 16 32  1  0  0  0  0
 16 33  1  0  0  0  0
 16 34  1  0  0  0  0
 17 35  1  0  0  0  0
 17 36  1  0  0  0  0
 17 37  1  0  0  0  0
 18 38  1  0  0  0  0
 18 39  1  0  0  0  0
 18 40  1  0  0  0  0
M  END
>  <energy>
31.255548014702704

$$$$
