C1=CN2C(=C[C@H]1C)C1=C[C@H](C=CN1CCC2)C
                    3D

 37 39  0  0  0  0  0  0  0  0999 V2000
   -3.4520    0.5687    0.6981 C   0  0  0  0  0  0  0  0  0  0  0  0
   -3.0090   -0.4927    0.0117 C   0  0  0  0  0  0  0  0  0  0  0  0
   -1.6732   -0.7001   -0.3070 N   0  0  0  0  0  0  0  0  0  0  0  0
   -0.6990    0.2275    0.1340 C   0  0  0  0  0  0  0  0  0  0  0  0
   -1.0602    1.3215    0.8414 C   0  0  0  0  0  0  0  0  0  0  0  0
   -2.4993    1.6355    1.1794 C   0  0  0  0  0  0  0  0  0  0  0  0
   -2.8918    2.9944    0.5993 C   0  0  0  0  0  0  0  0  0  0  0  0
    0.7351   -0.0425   -0.1279 C   0  0  0  0  0  0  0  0  0  0  0  0
    1.5048    0.9015   -0.7130 C   0  0  0  0  0  0  0  0  0  0  0  0
    2.9630    0.6776   -1.0409 C   0  0  0  0  0  0  0  0  0  0  0  0
    3.4223   -0.7207   -0.7076 C   0  0  0  0  0  0  0  0  0  0  0  0
    2.5894   -1.6023   -0.1391 C   0  0  0  0  0  0  0  0  0  0  0  0
    1.2693   -1.3163    0.1838 N   0  0  0  0  0  0  0  0  0  0  0  0
    0.4176   -2.3366    0.8177 C   0  0  0  0  0  0  0  0  0  0  0  0
   -0.5854   -2.9262   -0.1730 C   0  0  0  0  0  0  0  0  0  0  0  0
   -1.2633   -1.8911   -1.0695 C   0  0  0  0  0  0  0  0  0  0  0  0
    3.8280    1.7067   -0.3125 C   0  0  0  0  0  0  0  0  0  0  0  0
   -4.5079    0.6738    0.9227 H   0  0  0  0  0  0  0  0  0  0  0  0
   -3.6939   -1.2602   -0.3359 H   0  0  0  0  0  0  0  0  0  0  0  0
   -0.3067    2.0078    1.2159 H   0  0  0  0  0  0  0  0  0  0  0  0
   -2.5808    1.6866    2.2726 H   0  0  0  0  0  0  0  0  0  0  0  0
   -3.9195    3.2569    0.8746 H   0  0  0  0  0  0  0  0  0  0  0  0
   -2.2370    3.7873    0.9782 H   0  0  0  0  0  0  0  0  0  0  0  0
   -2.8266    3.0013   -0.4953 H   0  0  0  0  0  0  0  0  0  0  0  0
    1.0812    1.8618   -0.9909 H   0  0  0  0  0  0  0  0  0  0  0  0
    3.0871    0.8201   -2.1218 H   0  0  0  0  0  0  0  0  0  0  0  0
    4.4428   -1.0039   -0.9418 H   0  0  0  0  0  0  0  0  0  0  0  0
    2.9190   -2.6086    0.1021 H   0  0  0  0  0  0  0  0  0  0  0  0
    1.0253   -3.1506    1.2341 H   0  0  0  0  0  0  0  0  0  0  0  0
   -0.1038   -1.9046    1.6820 H   0  0  0  0  0  0  0  0  0  0  0  0
   -1.3459   -3.4776    0.3937 H   0  0  0  0  0  0  0  0  0  0  0  0
   -0.0823   -3.6609   -0.8141 H   0  0  0  0  0  0  0  0  0  0  0  0
   -2.1268   -2.3589   -1.5603 H   0  0  0  0  0  0  0  0  0  0  0  0
   -0.5967   -1.5987   -1.8915 H   0  0  0  0  0  0  0  0  0  0  0  0
    3.7418    1.6094    0.7763 H   0  0  0  0  0  0  0  0  0  0  0  0
    4.8851    1.5884   -0.5761 H   0  0  0  0  0  0  0  0  0  0  0  0
    3.5331    2.7277   -0.5809 H   0  0  0  0  0  0  0  0  0  0  0  0
  2  1  2  0  0  0  0
  3  2  1  0  0  0  0
  4  3  1  0  0  0  0
  5  4  2  0  0  0  0
  6  5  1  0  0  0  0
  6  1  1  0  0  0  0
  7  6  1  0  0  0  0
  8  4  1  0  0  0  0
  9  8  2  0  0  0  0
 10  9  1  0  0  0  0
 11 10  1  0  0  0  0
 12 11  2  0  0  0  0
 13 12  1  0  0  0  0
 13  8  1  0  0  0  0
 14 13  1  0  0  0  0
 15 14  1  0  0  0  0
 16 15  1  0  0  0  0
 16  3  1  0  0  0  0
 17 10  1  0  0  0  0
  1 18  1  0  0  0  0
  2 19  1  0  0  0  0
  5 20  1  0  0  0  0
  6 21  1  0  0  0  0
  7 22  1  0  0  0  0
  7 23  1  0  0  0  0
  7 24  1  0  0  0  0
  9 25  1  0  0  0  0
 10 26  1  0  0  0  0
 11 27  1  0  0  0  0
 12 28  1  0  0  0  0
 14 29  1  0  0  0  0
 14 30  1  0  0  0  0
 15 31  1  0  0  0  0
 15 32  1  0  0  0  0
 16 33  1  0  0  0  0
 16 34  1  0  0  0  0
 17 35  1  0  0  0  0
 17 36  1  0  0  0  0
 17 37  1  0  0  0  0
M  END
>  <energy>
-8.0720600550487092

$$$$
