C1=C[C@H]2C(=CN1C)[C@H]1C(=CN(C=C1)C)C=C2
                    3D

 32 34  0  0  0  0  0  0  0  0999 V2000
    3.5502    0.5385   -0.0894 C   0  0  0  0  0  0  0  0  0  0  0  0
    2.7531    1.2250    0.7422 C   0  0  0  0  0  0  0  0  0  0  0  0
    1.2535    1.0157    0.7388 C   0  0  0  0  0  0  0  0  0  0  0  0
    0.8223   -0.1391   -0.1576 C   0  0  0  0  0  0  0  0  0  0  0  0
    1.7346   -0.7623   -0.9305 C   0  0  0  0  0  0  0  0  0  0  0  0
    3.0812   -0.4173   -0.9800 N   0  0  0  0  0  0  0  0  0  0  0  0
    4.0136   -1.1822   -1.8088 C   0  0  0  0  0  0  0  0  0  0  0  0
   -0.5967   -0.6544    0.0047 C   0  0  0  0  0  0  0  0  0  0  0  0
   -1.3230   -0.0468    1.2083 C   0  0  0  0  0  0  0  0  0  0  0  0
   -2.6456    0.1897    1.1457 C   0  0  0  0  0  0  0  0  0  0  0  0
   -3.4054    0.0008   -0.0082 N   0  0  0  0  0  0  0  0  0  0  0  0
   -2.7369   -0.2783   -1.1963 C   0  0  0  0  0  0  0  0  0  0  0  0
   -1.4262   -0.5622   -1.2612 C   0  0  0  0  0  0  0  0  0  0  0  0
   -4.8267    0.3499   -0.0223 C   0  0  0  0  0  0  0  0  0  0  0  0
   -0.5229    0.3451    2.3481 C   0  0  0  0  0  0  0  0  0  0  0  0
    0.7101    0.8354    2.1412 C   0  0  0  0  0  0  0  0  0  0  0  0
    4.6230    0.7061   -0.1103 H   0  0  0  0  0  0  0  0  0  0  0  0
    3.1724    1.9813    1.3961 H   0  0  0  0  0  0  0  0  0  0  0  0
    0.8172    1.9417    0.3370 H   0  0  0  0  0  0  0  0  0  0  0  0
    1.4691   -1.6204   -1.5420 H   0  0  0  0  0  0  0  0  0  0  0  0
    4.8846   -0.5776   -2.0856 H   0  0  0  0  0  0  0  0  0  0  0  0
    4.3626   -2.0676   -1.2668 H   0  0  0  0  0  0  0  0  0  0  0  0
    3.5362   -1.5094   -2.7394 H   0  0  0  0  0  0  0  0  0  0  0  0
   -0.5020   -1.7294    0.2284 H   0  0  0  0  0  0  0  0  0  0  0  0
   -3.1929    0.6237    1.9776 H   0  0  0  0  0  0  0  0  0  0  0  0
   -3.3543   -0.2555   -2.0896 H   0  0  0  0  0  0  0  0  0  0  0  0
   -0.9671   -0.7949   -2.2146 H   0  0  0  0  0  0  0  0  0  0  0  0
   -5.2975    0.1198    0.9400 H   0  0  0  0  0  0  0  0  0  0  0  0
   -5.3650   -0.2158   -0.7910 H   0  0  0  0  0  0  0  0  0  0  0  0
   -4.9521    1.4187   -0.2249 H   0  0  0  0  0  0  0  0  0  0  0  0
   -0.9597    0.3229    3.3409 H   0  0  0  0  0  0  0  0  0  0  0  0
    1.2871    1.2052    2.9828 H   0  0  0  0  0  0  0  0  0  0  0  0
  2  1  2  0  0  0  0
  3  2  1  0  0  0  0
  4  3  1  0  0  0  0
  5  4  2  0  0  0  0
  6  5  1  0  0  0  0
  6  1  1  0  0  0  0
  7  6  1  0  0  0  0
  8  4  1  0  0  0  0
  9  8  1  0  0  0  0
 10  9  2  0  0  0  0
 11 10  1  0  0  0  0
 12 11  1  0  0  0  0
 13 12  2  0  0  0  0
 13  8  1  0  0  0  0
 14 11  1  0  0  0  0
 15  9  1  0  0  0  0
 16 15  2  0  0  0  0
 16  3  1  0  0  0  0
  1 17  1  0  0  0  0
  2 18  1  0  0  0  0
  3 19  1  0  0  0  0
  5 20  1  0  0  0  0
  7 21  1  0  0  0  0
  7 22  1  0  0  0  0
  7 23  1  0  0  0  0
  8 24  1  0  0  0  0
 10 25  1  0  0  0  0
 12 26  1  0  0  0  0
 13 27  1  0  0  0  0
 14 28  1  0  0  0  0
 14 29  1  0  0  0  0
 14 30  1  0  0  0  0
 15 31  1  0  0  0  0
 16 32  1  0  0  0  0
M  END
>  <energy>
21.891121358283559

$$$$
