n1(cc2c(cc1)c1c(cc2)cn(cc1)C)C
                    3D

 30 32  0  0  0  0  0  0  0  0999 V2000
    3.4918    0.0956    0.4409 N   0  0  0  0  0  0  0  0  0  0  0  0
    2.7704   -0.7293   -0.4272 C   0  0  0  0  0  0  0  0  0  0  0  0
    1.4246   -0.7194   -0.5541 C   0  0  0  0  0  0  0  0  0  0  0  0
    0.6654    0.2573    0.2936 C   0  0  0  0  0  0  0  0  0  0  0  0
    1.4432    1.1406    1.1773 C   0  0  0  0  0  0  0  0  0  0  0  0
    2.7819    1.0222    1.2005 C   0  0  0  0  0  0  0  0  0  0  0  0
   -0.6948    0.2775    0.1934 C   0  0  0  0  0  0  0  0  0  0  0  0
   -1.3489   -0.6723   -0.7649 C   0  0  0  0  0  0  0  0  0  0  0  0
   -0.5801   -1.6048   -1.5761 C   0  0  0  0  0  0  0  0  0  0  0  0
    0.7567   -1.6265   -1.4760 C   0  0  0  0  0  0  0  0  0  0  0  0
   -2.6963   -0.6295   -0.8512 C   0  0  0  0  0  0  0  0  0  0  0  0
   -3.5105    0.2416   -0.1210 N   0  0  0  0  0  0  0  0  0  0  0  0
   -2.8970    1.1019    0.7865 C   0  0  0  0  0  0  0  0  0  0  0  0
   -1.5675    1.1677    0.9740 C   0  0  0  0  0  0  0  0  0  0  0  0
   -4.9664    0.1675   -0.2248 C   0  0  0  0  0  0  0  0  0  0  0  0
    4.9528    0.0630    0.4634 C   0  0  0  0  0  0  0  0  0  0  0  0
    3.3926   -1.4035   -1.0078 H   0  0  0  0  0  0  0  0  0  0  0  0
    0.9618    1.8842    1.7954 H   0  0  0  0  0  0  0  0  0  0  0  0
    3.3902    1.6622    1.8320 H   0  0  0  0  0  0  0  0  0  0  0  0
   -1.0964   -2.2729   -2.2565 H   0  0  0  0  0  0  0  0  0  0  0  0
    1.3467   -2.3135   -2.0723 H   0  0  0  0  0  0  0  0  0  0  0  0
   -3.2461   -1.2877   -1.5171 H   0  0  0  0  0  0  0  0  0  0  0  0
   -3.5746    1.7355    1.3506 H   0  0  0  0  0  0  0  0  0  0  0  0
   -1.1636    1.8601    1.6979 H   0  0  0  0  0  0  0  0  0  0  0  0
   -5.2768   -0.0498   -1.2529 H   0  0  0  0  0  0  0  0  0  0  0  0
   -5.3501   -0.6228    0.4288 H   0  0  0  0  0  0  0  0  0  0  0  0
   -5.4373    1.1139    0.0638 H   0  0  0  0  0  0  0  0  0  0  0  0
    5.3556    0.6936   -0.3360 H   0  0  0  0  0  0  0  0  0  0  0  0
    5.3466    0.4238    1.4201 H   0  0  0  0  0  0  0  0  0  0  0  0
    5.3260   -0.9577    0.3232 H   0  0  0  0  0  0  0  0  0  0  0  0
  2  1  1  0  0  0  0
  3  2  2  0  0  0  0
  4  3  1  0  0  0  0
  5  4  1  0  0  0  0
  6  5  2  0  0  0  0
  6  1  1  0  0  0  0
  7  4  2  0  0  0  0
  8  7  1  0  0  0  0
  9  8  1  0  0  0  0
 10  9  2  0  0  0  0
 10  3  1  0  0  0  0
 11  8  2  0  0  0  0
 12 11  1  0  0  0  0
 13 12  1  0  0  0  0
 14 13  2  0  0  0  0
 14  7  1  0  0  0  0
 15 12  1  0  0  0  0
 16  1  1  0  0  0  0
  2 17  1  0  0  0  0
  5 18  1  0  0  0  0
  6 19  1  0  0  0  0
  9 20  1  0  0  0  0
 10 21  1  0  0  0  0
 11 22  1  0  0  0  0
 13 23  1  0  0  0  0
 14 24  1  0  0  0  0
 15 25  1  0  0  0  0
 15 26  1  0  0  0  0
 15 27  1  0  0  0  0
 16 28  1  0  0  0  0
 16 29  1  0  0  0  0
 16 30  1  0  0  0  0
M  END
>  <energy>
74.533877773705512

$$$$
