N1(C=C2[C@H](C=C1)C1=C(C=C2)N(C=CC1)C)C
                    3D

 32 34  0  0  0  0  0  0  0  0999 V2000
    3.2603    0.6242   -0.5214 N   0  0  0  0  0  0  0  0  0  0  0  0
    2.6813   -0.3033    0.3407 C   0  0  0  0  0  0  0  0  0  0  0  0
    1.4175   -0.7439    0.2151 C   0  0  0  0  0  0  0  0  0  0  0  0
    0.5402   -0.2971   -0.9564 C   0  0  0  0  0  0  0  0  0  0  0  0
    1.1888    0.8400   -1.7311 C   0  0  0  0  0  0  0  0  0  0  0  0
    2.4569    1.2098   -1.4919 C   0  0  0  0  0  0  0  0  0  0  0  0
   -0.9032   -0.0534   -0.5128 C   0  0  0  0  0  0  0  0  0  0  0  0
   -1.4216   -0.6870    0.5760 C   0  0  0  0  0  0  0  0  0  0  0  0
   -0.5479   -1.5905    1.3305 C   0  0  0  0  0  0  0  0  0  0  0  0
    0.7863   -1.6037    1.1882 C   0  0  0  0  0  0  0  0  0  0  0  0
   -2.7713   -0.5159    0.9613 N   0  0  0  0  0  0  0  0  0  0  0  0
   -3.6053    0.2648    0.1699 C   0  0  0  0  0  0  0  0  0  0  0  0
   -3.1982    0.9151   -0.9250 C   0  0  0  0  0  0  0  0  0  0  0  0
   -1.7686    0.8453   -1.3693 C   0  0  0  0  0  0  0  0  0  0  0  0
   -3.3236   -1.1424    2.1684 C   0  0  0  0  0  0  0  0  0  0  0  0
    4.6121    1.1255   -0.2707 C   0  0  0  0  0  0  0  0  0  0  0  0
    3.3159   -0.6058    1.1684 H   0  0  0  0  0  0  0  0  0  0  0  0
    0.4908   -1.1385   -1.6655 H   0  0  0  0  0  0  0  0  0  0  0  0
    0.6468    1.3086   -2.5438 H   0  0  0  0  0  0  0  0  0  0  0  0
    2.9328    1.9953   -2.0721 H   0  0  0  0  0  0  0  0  0  0  0  0
   -0.9917   -2.2532    2.0636 H   0  0  0  0  0  0  0  0  0  0  0  0
    1.4047   -2.2287    1.8233 H   0  0  0  0  0  0  0  0  0  0  0  0
   -4.6389    0.3259    0.4973 H   0  0  0  0  0  0  0  0  0  0  0  0
   -3.8924    1.5141   -1.5030 H   0  0  0  0  0  0  0  0  0  0  0  0
   -1.7508    0.4828   -2.4039 H   0  0  0  0  0  0  0  0  0  0  0  0
   -1.3671    1.8650   -1.3578 H   0  0  0  0  0  0  0  0  0  0  0  0
   -4.3329   -0.7800    2.3965 H   0  0  0  0  0  0  0  0  0  0  0  0
   -2.7034   -0.9164    3.0429 H   0  0  0  0  0  0  0  0  0  0  0  0
   -3.3873   -2.2282    2.0392 H   0  0  0  0  0  0  0  0  0  0  0  0
    5.0771    1.4923   -1.1927 H   0  0  0  0  0  0  0  0  0  0  0  0
    4.5819    1.9462    0.4538 H   0  0  0  0  0  0  0  0  0  0  0  0
    5.2577    0.3339    0.1260 H   0  0  0  0  0  0  0  0  0  0  0  0
  2  1  1  0  0  0  0
  3  2  2  0  0  0  0
  4  3  1  0  0  0  0
  5  4  1  0  0  0  0
  6  5  2  0  0  0  0
  6  1  1  0  0  0  0
  7  4  1  0  0  0  0
  8  7  2  0  0  0  0
  9  8  1  0  0  0  0
 10  9  2  0  0  0  0
 10  3  1  0  0  0  0
 11  8  1  0  0  0  0
 12 11  1  0  0  0  0
 13 12  2  0  0  0  0
 14 13  1  0  0  0  0
 14  7  1  0  0  0  0
 15 11  1  0  0  0  0
 16  1  1  0  0  0  0
  2 17  1  0  0  0  0
  4 18  1  0  0  0  0
  5 19  1  0  0  0  0
  6 20  1  0  0  0  0
  9 21  1  0  0  0  0
 10 22  1  0  0  0  0
 12 23  1  0  0  0  0
 13 24  1  0  0  0  0
 14 25  1  0  0  0  0
 14 26  1  0  0  0  0
 15 27  1  0  0  0  0
 15 28  1  0  0  0  0
 15 29  1  0  0  0  0
 16 30  1  0  0  0  0
 16 31  1  0  0  0  0
 16 32  1  0  0  0  0
M  END
>  <energy>
11.04849887120195

$$$$
