c1c(cc2c(c1)Nc1c(S2)ccc(c1)Cl)OC
                    3D

 27 29  0  0  0  0  0  0  0  0999 V2000
    2.8453   -0.8147    1.0274 C   0  0  0  0  0  0  0  0  0  0  0  0
    3.0432    0.1371    0.0317 C   0  0  0  0  0  0  0  0  0  0  0  0
    1.9353    0.6597   -0.6398 C   0  0  0  0  0  0  0  0  0  0  0  0
    0.6319    0.2442   -0.3264 C   0  0  0  0  0  0  0  0  0  0  0  0
    0.4315   -0.7281    0.6653 C   0  0  0  0  0  0  0  0  0  0  0  0
    1.5491   -1.2370    1.3442 C   0  0  0  0  0  0  0  0  0  0  0  0
   -0.8507   -1.1492    1.0579 N   0  0  0  0  0  0  0  0  0  0  0  0
   -2.0750   -0.7641    0.4824 C   0  0  0  0  0  0  0  0  0  0  0  0
   -2.1533    0.2074   -0.5317 C   0  0  0  0  0  0  0  0  0  0  0  0
   -0.7120    0.9916   -1.2329 S   0  0  0  0  0  0  0  0  0  0  0  0
   -3.4061    0.5911   -1.0364 C   0  0  0  0  0  0  0  0  0  0  0  0
   -4.5789    0.0282   -0.5318 C   0  0  0  0  0  0  0  0  0  0  0  0
   -4.5017   -0.9171    0.4846 C   0  0  0  0  0  0  0  0  0  0  0  0
   -3.2639   -1.3082    0.9946 C   0  0  0  0  0  0  0  0  0  0  0  0
   -5.9442   -1.6048    1.1232 Cl  0  0  0  0  0  0  0  0  0  0  0  0
    4.2482    0.6392   -0.3744 O   0  0  0  0  0  0  0  0  0  0  0  0
    5.4039    0.1845    0.3183 C   0  0  0  0  0  0  0  0  0  0  0  0
    3.6724   -1.2464    1.5806 H   0  0  0  0  0  0  0  0  0  0  0  0
    2.0973    1.4069   -1.4139 H   0  0  0  0  0  0  0  0  0  0  0  0
    1.4198   -1.9702    2.1364 H   0  0  0  0  0  0  0  0  0  0  0  0
   -0.8780   -1.9849    1.6277 H   0  0  0  0  0  0  0  0  0  0  0  0
   -3.4755    1.3371   -1.8257 H   0  0  0  0  0  0  0  0  0  0  0  0
   -5.5415    0.3363   -0.9310 H   0  0  0  0  0  0  0  0  0  0  0  0
   -3.2266   -2.0382    1.7984 H   0  0  0  0  0  0  0  0  0  0  0  0
    6.2714    0.7005   -0.1044 H   0  0  0  0  0  0  0  0  0  0  0  0
    5.5525   -0.8905    0.1735 H   0  0  0  0  0  0  0  0  0  0  0  0
    5.3528    0.4374    1.3826 H   0  0  0  0  0  0  0  0  0  0  0  0
  2  1  2  0  0  0  0
  3  2  1  0  0  0  0
  4  3  2  0  0  0  0
  5  4  1  0  0  0  0
  6  5  2  0  0  0  0
  6  1  1  0  0  0  0
  7  5  1  0  0  0  0
  8  7  1  0  0  0  0
  9  8  2  0  0  0  0
 10  9  1  0  0  0  0
 10  4  1  0  0  0  0
 11  9  1  0  0  0  0
 12 11  2  0  0  0  0
 13 12  1  0  0  0  0
 14 13  2  0  0  0  0
 14  8  1  0  0  0  0
 15 13  1  0  0  0  0
 16  2  1  0  0  0  0
 17 16  1  0  0  0  0
  1 18  1  0  0  0  0
  3 19  1  0  0  0  0
  6 20  1  0  0  0  0
  7 21  1  0  0  0  0
 11 22  1  0  0  0  0
 12 23  1  0  0  0  0
 14 24  1  0  0  0  0
 17 25  1  0  0  0  0
 17 26  1  0  0  0  0
 17 27  1  0  0  0  0
M  END
>  <energy>
47.182569588805876

$$$$
