C1(=C/C(=C/2\C=C(C(=O)C(=C2)Cl)Cl)/C=C(C1=O)Cl)Cl
                    3D

 22 23  0  0  0  0  0  0  0  0999 V2000
    1.5955   -3.2461   -0.6113 C   0  0  0  0  0  0  0  0  0  0  0  0
    0.7619   -2.3193   -0.1133 C   0  0  0  0  0  0  0  0  0  0  0  0
    0.2855   -1.1768   -0.9128 C   0  0  0  0  0  0  0  0  0  0  0  0
   -0.7376   -0.3591   -0.5019 C   0  0  0  0  0  0  0  0  0  0  0  0
   -1.4560   -0.5788    0.7680 C   0  0  0  0  0  0  0  0  0  0  0  0
   -2.4889    0.1828    1.1599 C   0  0  0  0  0  0  0  0  0  0  0  0
   -2.9752    1.3265    0.3351 C   0  0  0  0  0  0  0  0  0  0  0  0
   -3.9154    2.0316    0.6861 O   0  0  0  0  0  0  0  0  0  0  0  0
   -2.2513    1.5462   -0.9495 C   0  0  0  0  0  0  0  0  0  0  0  0
   -1.2304    0.7608   -1.3266 C   0  0  0  0  0  0  0  0  0  0  0  0
   -2.7890    2.8375   -1.9623 Cl  0  0  0  0  0  0  0  0  0  0  0  0
   -3.3201   -0.1554    2.6337 Cl  0  0  0  0  0  0  0  0  0  0  0  0
    0.9943   -0.9605   -2.1866 C   0  0  0  0  0  0  0  0  0  0  0  0
    1.8251   -1.8729   -2.7111 C   0  0  0  0  0  0  0  0  0  0  0  0
    2.1287   -3.1471   -1.9991 C   0  0  0  0  0  0  0  0  0  0  0  0
    2.7992   -4.0391   -2.5075 O   0  0  0  0  0  0  0  0  0  0  0  0
    2.5940   -1.5967   -4.2289 Cl  0  0  0  0  0  0  0  0  0  0  0  0
    2.0889   -4.5941    0.3445 Cl  0  0  0  0  0  0  0  0  0  0  0  0
    0.4468   -2.4399    0.9151 H   0  0  0  0  0  0  0  0  0  0  0  0
   -1.1722   -1.3922    1.4243 H   0  0  0  0  0  0  0  0  0  0  0  0
   -0.7857    0.9729   -2.2909 H   0  0  0  0  0  0  0  0  0  0  0  0
    0.8582   -0.0398   -2.7425 H   0  0  0  0  0  0  0  0  0  0  0  0
  2  1  2  0  0  0  0
  3  2  1  0  0  0  0
  4  3  2  0  0  0  0
  5  4  1  0  0  0  0
  6  5  2  0  0  0  0
  7  6  1  0  0  0  0
  8  7  2  0  0  0  0
  9  7  1  0  0  0  0
 10  9  2  0  0  0  0
 10  4  1  0  0  0  0
 11  9  1  0  0  0  0
 12  6  1  0  0  0  0
 13  3  1  0  0  0  0
 14 13  2  0  0  0  0
 15 14  1  0  0  0  0
 15  1  1  0  0  0  0
 16 15  2  0  0  0  0
 17 14  1  0  0  0  0
 18  1  1  0  0  0  0
  2 19  1  0  0  0  0
  5 20  1  0  0  0  0
 10 21  1  0  0  0  0
 13 22  1  0  0  0  0
M  END
>  <energy>
89.016182355401526

$$$$
