C1(=C/C(=C/2\C=C(C(=O)C(=C2)Br)Br)/C=C(C1=O)Br)Br
                    3D

 22 23  0  0  0  0  0  0  0  0999 V2000
    1.5094   -3.3008   -0.8928 C   0  0  0  0  0  0  0  0  0  0  0  0
    0.7470   -2.3606   -0.3079 C   0  0  0  0  0  0  0  0  0  0  0  0
    0.2487   -1.1815   -1.0353 C   0  0  0  0  0  0  0  0  0  0  0  0
   -0.7488   -0.3721   -0.5517 C   0  0  0  0  0  0  0  0  0  0  0  0
   -1.4168   -0.6282    0.7341 C   0  0  0  0  0  0  0  0  0  0  0  0
   -2.4122    0.1386    1.2124 C   0  0  0  0  0  0  0  0  0  0  0  0
   -2.9022    1.3237    0.4402 C   0  0  0  0  0  0  0  0  0  0  0  0
   -3.8122    2.0345    0.8569 O   0  0  0  0  0  0  0  0  0  0  0  0
   -2.2347    1.5888   -0.8710 C   0  0  0  0  0  0  0  0  0  0  0  0
   -1.2529    0.7848   -1.3138 C   0  0  0  0  0  0  0  0  0  0  0  0
   -2.8245    3.0469   -1.8844 Br  0  0  0  0  0  0  0  0  0  0  0  0
   -3.2416   -0.2555    2.8437 Br  0  0  0  0  0  0  0  0  0  0  0  0
    0.9234   -0.9050   -2.3146 C   0  0  0  0  0  0  0  0  0  0  0  0
    1.6723   -1.8224   -2.9494 C   0  0  0  0  0  0  0  0  0  0  0  0
    1.9176   -3.1594   -2.3242 C   0  0  0  0  0  0  0  0  0  0  0  0
    2.4556   -4.0762   -2.9395 O   0  0  0  0  0  0  0  0  0  0  0  0
    2.4503   -1.4676   -4.6103 Br  0  0  0  0  0  0  0  0  0  0  0  0
    2.1030   -4.8044    0.0455 Br  0  0  0  0  0  0  0  0  0  0  0  0
    0.5058   -2.4927    0.7389 H   0  0  0  0  0  0  0  0  0  0  0  0
   -1.1164   -1.4720    1.3431 H   0  0  0  0  0  0  0  0  0  0  0  0
   -0.8480    1.0066   -2.2937 H   0  0  0  0  0  0  0  0  0  0  0  0
    0.8311    0.0697   -2.7758 H   0  0  0  0  0  0  0  0  0  0  0  0
  2  1  2  0  0  0  0
  3  2  1  0  0  0  0
  4  3  2  0  0  0  0
  5  4  1  0  0  0  0
  6  5  2  0  0  0  0
  7  6  1  0  0  0  0
  8  7  2  0  0  0  0
  9  7  1  0  0  0  0
 10  9  2  0  0  0  0
 10  4  1  0  0  0  0
 11  9  1  0  0  0  0
 12  6  1  0  0  0  0
 13  3  1  0  0  0  0
 14 13  2  0  0  0  0
 15 14  1  0  0  0  0
 15  1  1  0  0  0  0
 16 15  2  0  0  0  0
 17 14  1  0  0  0  0
 18  1  1  0  0  0  0
  2 19  1  0  0  0  0
  5 20  1  0  0  0  0
 10 21  1  0  0  0  0
 13 22  1  0  0  0  0
M  END
>  <energy>
86.34293939128176

$$$$
