C1(=CN2C(=CC1)C1=CCC(=CN1CC2)C)C
                    3D

 34 36  0  0  0  0  0  0  0  0999 V2000
    3.5814   -0.2947   -0.0690 C   0  0  0  0  0  0  0  0  0  0  0  0
    2.7014   -0.9684    0.6879 C   0  0  0  0  0  0  0  0  0  0  0  0
    1.3271   -0.7865    0.6190 N   0  0  0  0  0  0  0  0  0  0  0  0
    0.7695    0.1039   -0.3268 C   0  0  0  0  0  0  0  0  0  0  0  0
    1.5860    0.8403   -1.1123 C   0  0  0  0  0  0  0  0  0  0  0  0
    3.0851    0.7204   -1.0682 C   0  0  0  0  0  0  0  0  0  0  0  0
   -0.7120    0.2486   -0.3721 C   0  0  0  0  0  0  0  0  0  0  0  0
   -1.3628    0.6580   -1.4841 C   0  0  0  0  0  0  0  0  0  0  0  0
   -2.8579    0.8212   -1.5402 C   0  0  0  0  0  0  0  0  0  0  0  0
   -3.5492    0.5051   -0.2371 C   0  0  0  0  0  0  0  0  0  0  0  0
   -2.8289    0.0745    0.8101 C   0  0  0  0  0  0  0  0  0  0  0  0
   -1.4531   -0.1052    0.7784 N   0  0  0  0  0  0  0  0  0  0  0  0
   -0.7348   -0.6233    1.9555 C   0  0  0  0  0  0  0  0  0  0  0  0
    0.4218   -1.5280    1.5128 C   0  0  0  0  0  0  0  0  0  0  0  0
   -5.0321    0.6924   -0.1889 C   0  0  0  0  0  0  0  0  0  0  0  0
    5.0613   -0.4907    0.0197 C   0  0  0  0  0  0  0  0  0  0  0  0
    3.0253   -1.7039    1.4184 H   0  0  0  0  0  0  0  0  0  0  0  0
    1.1960    1.5739   -1.8079 H   0  0  0  0  0  0  0  0  0  0  0  0
    3.4390    0.4426   -2.0679 H   0  0  0  0  0  0  0  0  0  0  0  0
    3.5065    1.7025   -0.8256 H   0  0  0  0  0  0  0  0  0  0  0  0
   -0.8316    0.8834   -2.4010 H   0  0  0  0  0  0  0  0  0  0  0  0
   -3.0793    1.8574   -1.8230 H   0  0  0  0  0  0  0  0  0  0  0  0
   -3.2514    0.1681   -2.3280 H   0  0  0  0  0  0  0  0  0  0  0  0
   -3.2952   -0.1648    1.7608 H   0  0  0  0  0  0  0  0  0  0  0  0
   -1.4072   -1.2022    2.6005 H   0  0  0  0  0  0  0  0  0  0  0  0
   -0.3561    0.2217    2.5449 H   0  0  0  0  0  0  0  0  0  0  0  0
    0.9525   -1.8831    2.4048 H   0  0  0  0  0  0  0  0  0  0  0  0
    0.0379   -2.4091    0.9827 H   0  0  0  0  0  0  0  0  0  0  0  0
   -5.2894    1.7381   -0.3876 H   0  0  0  0  0  0  0  0  0  0  0  0
   -5.4471    0.4258    0.7884 H   0  0  0  0  0  0  0  0  0  0  0  0
   -5.5203    0.0640   -0.9410 H   0  0  0  0  0  0  0  0  0  0  0  0
    5.3301   -1.2650    0.7457 H   0  0  0  0  0  0  0  0  0  0  0  0
    5.4631   -0.7915   -0.9529 H   0  0  0  0  0  0  0  0  0  0  0  0
    5.5505    0.4398    0.3251 H   0  0  0  0  0  0  0  0  0  0  0  0
  2  1  2  0  0  0  0
  3  2  1  0  0  0  0
  4  3  1  0  0  0  0
  5  4  2  0  0  0  0
  6  5  1  0  0  0  0
  6  1  1  0  0  0  0
  7  4  1  0  0  0  0
  8  7  2  0  0  0  0
  9  8  1  0  0  0  0
 10  9  1  0  0  0  0
 11 10  2  0  0  0  0
 12 11  1  0  0  0  0
 12  7  1  0  0  0  0
 13 12  1  0  0  0  0
 14 13  1  0  0  0  0
 14  3  1  0  0  0  0
 15 10  1  0  0  0  0
 16  1  1  0  0  0  0
  2 17  1  0  0  0  0
  5 18  1  0  0  0  0
  6 19  1  0  0  0  0
  6 20  1  0  0  0  0
  8 21  1  0  0  0  0
  9 22  1  0  0  0  0
  9 23  1  0  0  0  0
 11 24  1  0  0  0  0
 13 25  1  0  0  0  0
 13 26  1  0  0  0  0
 14 27  1  0  0  0  0
 14 28  1  0  0  0  0
 15 29  1  0  0  0  0
 15 30  1  0  0  0  0
 15 31  1  0  0  0  0
 16 32  1  0  0  0  0
 16 33  1  0  0  0  0
 16 34  1  0  0  0  0
M  END
>  <energy>
24.152539161071218

$$$$
