c1c(cc2c(c1)Nc1c(S2)cc(cc1)OC)OC
                    3D

 31 33  0  0  0  0  0  0  0  0999 V2000
    3.3555   -2.0759   -0.0487 C   0  0  0  0  0  0  0  0  0  0  0  0
    3.6784   -0.7854   -0.4575 C   0  0  0  0  0  0  0  0  0  0  0  0
    2.6940    0.1974   -0.5032 C   0  0  0  0  0  0  0  0  0  0  0  0
    1.3628   -0.1085   -0.1868 C   0  0  0  0  0  0  0  0  0  0  0  0
    1.0228   -1.4070    0.2321 C   0  0  0  0  0  0  0  0  0  0  0  0
    2.0298   -2.3868    0.2791 C   0  0  0  0  0  0  0  0  0  0  0  0
   -0.3031   -1.7795    0.5208 N   0  0  0  0  0  0  0  0  0  0  0  0
   -1.4286   -0.9339    0.5234 C   0  0  0  0  0  0  0  0  0  0  0  0
   -1.3635    0.4072    0.1188 C   0  0  0  0  0  0  0  0  0  0  0  0
    0.1632    1.2040   -0.3440 S   0  0  0  0  0  0  0  0  0  0  0  0
   -2.5346    1.1808    0.0733 C   0  0  0  0  0  0  0  0  0  0  0  0
   -3.7766    0.6352    0.4063 C   0  0  0  0  0  0  0  0  0  0  0  0
   -3.8413   -0.6934    0.8191 C   0  0  0  0  0  0  0  0  0  0  0  0
   -2.6786   -1.4731    0.8612 C   0  0  0  0  0  0  0  0  0  0  0  0
   -4.8340    1.4958    0.2950 O   0  0  0  0  0  0  0  0  0  0  0  0
   -6.1340    0.9288    0.4179 C   0  0  0  0  0  0  0  0  0  0  0  0
    4.9497   -0.3932   -0.7812 O   0  0  0  0  0  0  0  0  0  0  0  0
    5.5974   -1.2735   -1.6993 C   0  0  0  0  0  0  0  0  0  0  0  0
    4.1177   -2.8453    0.0338 H   0  0  0  0  0  0  0  0  0  0  0  0
    2.9677    1.2021   -0.8089 H   0  0  0  0  0  0  0  0  0  0  0  0
    1.7911   -3.4063    0.5727 H   0  0  0  0  0  0  0  0  0  0  0  0
   -0.4099   -2.6461    1.0327 H   0  0  0  0  0  0  0  0  0  0  0  0
   -2.4837    2.2222   -0.2376 H   0  0  0  0  0  0  0  0  0  0  0  0
   -4.7792   -1.1566    1.1125 H   0  0  0  0  0  0  0  0  0  0  0  0
   -2.7611   -2.5157    1.1590 H   0  0  0  0  0  0  0  0  0  0  0  0
   -6.3236    0.6204    1.4524 H   0  0  0  0  0  0  0  0  0  0  0  0
   -6.8707    1.6965    0.1563 H   0  0  0  0  0  0  0  0  0  0  0  0
   -6.2738    0.0907   -0.2738 H   0  0  0  0  0  0  0  0  0  0  0  0
    6.0361   -2.1284   -1.1724 H   0  0  0  0  0  0  0  0  0  0  0  0
    4.9204   -1.6090   -2.4947 H   0  0  0  0  0  0  0  0  0  0  0  0
    6.4093   -0.7112   -2.1704 H   0  0  0  0  0  0  0  0  0  0  0  0
  2  1  2  0  0  0  0
  3  2  1  0  0  0  0
  4  3  2  0  0  0  0
  5  4  1  0  0  0  0
  6  5  2  0  0  0  0
  6  1  1  0  0  0  0
  7  5  1  0  0  0  0
  8  7  1  0  0  0  0
  9  8  2  0  0  0  0
 10  9  1  0  0  0  0
 10  4  1  0  0  0  0
 11  9  1  0  0  0  0
 12 11  2  0  0  0  0
 13 12  1  0  0  0  0
 14 13  2  0  0  0  0
 14  8  1  0  0  0  0
 15 12  1  0  0  0  0
 16 15  1  0  0  0  0
 17  2  1  0  0  0  0
 18 17  1  0  0  0  0
  1 19  1  0  0  0  0
  3 20  1  0  0  0  0
  6 21  1  0  0  0  0
  7 22  1  0  0  0  0
 11 23  1  0  0  0  0
 13 24  1  0  0  0  0
 14 25  1  0  0  0  0
 16 26  1  0  0  0  0
 16 27  1  0  0  0  0
 16 28  1  0  0  0  0
 18 29  1  0  0  0  0
 18 30  1  0  0  0  0
 18 31  1  0  0  0  0
M  END
>  <energy>
54.123925137675741

$$$$
