C1=CN2C(=CC1)C1=CCC=CN1CCC2
                    3D

 31 33  0  0  0  0  0  0  0  0999 V2000
    3.2885   -1.4318    0.2891 C   0  0  0  0  0  0  0  0  0  0  0  0
    2.8809   -0.2818   -0.2635 C   0  0  0  0  0  0  0  0  0  0  0  0
    1.5444    0.0665   -0.4141 N   0  0  0  0  0  0  0  0  0  0  0  0
    0.5370   -0.8165    0.0469 C   0  0  0  0  0  0  0  0  0  0  0  0
    0.8668   -1.9927    0.6252 C   0  0  0  0  0  0  0  0  0  0  0  0
    2.2934   -2.4360    0.7943 C   0  0  0  0  0  0  0  0  0  0  0  0
   -0.8859   -0.4126   -0.0506 C   0  0  0  0  0  0  0  0  0  0  0  0
   -1.7871   -1.2376   -0.6278 C   0  0  0  0  0  0  0  0  0  0  0  0
   -3.2341   -0.8640   -0.7924 C   0  0  0  0  0  0  0  0  0  0  0  0
   -3.5499    0.5137   -0.2866 C   0  0  0  0  0  0  0  0  0  0  0  0
   -2.5968    1.2760    0.2651 C   0  0  0  0  0  0  0  0  0  0  0  0
   -1.2771    0.8678    0.4133 N   0  0  0  0  0  0  0  0  0  0  0  0
   -0.2848    1.7594    1.0363 C   0  0  0  0  0  0  0  0  0  0  0  0
    0.6677    2.3510   -0.0015 C   0  0  0  0  0  0  0  0  0  0  0  0
    1.1712    1.3470   -1.0374 C   0  0  0  0  0  0  0  0  0  0  0  0
    4.3447   -1.6574    0.3801 H   0  0  0  0  0  0  0  0  0  0  0  0
    3.5961    0.4478   -0.6315 H   0  0  0  0  0  0  0  0  0  0  0  0
    0.0997   -2.6564    1.0106 H   0  0  0  0  0  0  0  0  0  0  0  0
    2.4383   -3.3828    0.2623 H   0  0  0  0  0  0  0  0  0  0  0  0
    2.4837   -2.6199    1.8576 H   0  0  0  0  0  0  0  0  0  0  0  0
   -1.4853   -2.2054   -1.0147 H   0  0  0  0  0  0  0  0  0  0  0  0
   -3.4964   -0.9208   -1.8549 H   0  0  0  0  0  0  0  0  0  0  0  0
   -3.8538   -1.5926   -0.2578 H   0  0  0  0  0  0  0  0  0  0  0  0
   -4.5666    0.8786   -0.3758 H   0  0  0  0  0  0  0  0  0  0  0  0
   -2.8197    2.2726    0.6341 H   0  0  0  0  0  0  0  0  0  0  0  0
   -0.7777    2.5805    1.5730 H   0  0  0  0  0  0  0  0  0  0  0  0
    0.2759    1.2151    1.8077 H   0  0  0  0  0  0  0  0  0  0  0  0
    0.1706    3.1728   -0.5317 H   0  0  0  0  0  0  0  0  0  0  0  0
    1.5210    2.7935    0.5272 H   0  0  0  0  0  0  0  0  0  0  0  0
    2.0240    1.7869   -1.5707 H   0  0  0  0  0  0  0  0  0  0  0  0
    0.4112    1.1790   -1.8118 H   0  0  0  0  0  0  0  0  0  0  0  0
  2  1  2  0  0  0  0
  3  2  1  0  0  0  0
  4  3  1  0  0  0  0
  5  4  2  0  0  0  0
  6  5  1  0  0  0  0
  6  1  1  0  0  0  0
  7  4  1  0  0  0  0
  8  7  2  0  0  0  0
  9  8  1  0  0  0  0
 10  9  1  0  0  0  0
 11 10  2  0  0  0  0
 12 11  1  0  0  0  0
 12  7  1  0  0  0  0
 13 12  1  0  0  0  0
 14 13  1  0  0  0  0
 15 14  1  0  0  0  0
 15  3  1  0  0  0  0
  1 16  1  0  0  0  0
  2 17  1  0  0  0  0
  5 18  1  0  0  0  0
  6 19  1  0  0  0  0
  6 20  1  0  0  0  0
  8 21  1  0  0  0  0
  9 22  1  0  0  0  0
  9 23  1  0  0  0  0
 10 24  1  0  0  0  0
 11 25  1  0  0  0  0
 13 26  1  0  0  0  0
 13 27  1  0  0  0  0
 14 28  1  0  0  0  0
 14 29  1  0  0  0  0
 15 30  1  0  0  0  0
 15 31  1  0  0  0  0
M  END
>  <energy>
-12.885510596281499

$$$$
