c1ccc2c(c1)Nc1c(S2)cc(cc1)Cl
                    3D

 23 25  0  0  0  0  0  0  0  0999 V2000
   -3.4586    1.4778   -0.3438 C   0  0  0  0  0  0  0  0  0  0  0  0
   -3.8940    0.1999   -0.0100 C   0  0  0  0  0  0  0  0  0  0  0  0
   -2.9612   -0.8086    0.2321 C   0  0  0  0  0  0  0  0  0  0  0  0
   -1.5849   -0.5484    0.1438 C   0  0  0  0  0  0  0  0  0  0  0  0
   -1.1395    0.7408   -0.1945 C   0  0  0  0  0  0  0  0  0  0  0  0
   -2.0912    1.7453   -0.4349 C   0  0  0  0  0  0  0  0  0  0  0  0
    0.2248    1.0598   -0.2905 N   0  0  0  0  0  0  0  0  0  0  0  0
    1.3124    0.1995   -0.0756 C   0  0  0  0  0  0  0  0  0  0  0  0
    1.1408   -1.1512    0.2783 C   0  0  0  0  0  0  0  0  0  0  0  0
   -0.4680   -1.9015    0.4737 S   0  0  0  0  0  0  0  0  0  0  0  0
    2.2624   -1.9666    0.4919 C   0  0  0  0  0  0  0  0  0  0  0  0
    3.5453   -1.4429    0.3553 C   0  0  0  0  0  0  0  0  0  0  0  0
    3.7279   -0.1096    0.0050 C   0  0  0  0  0  0  0  0  0  0  0  0
    2.6152    0.7065   -0.2087 C   0  0  0  0  0  0  0  0  0  0  0  0
    4.9147   -2.4497    0.6224 Cl  0  0  0  0  0  0  0  0  0  0  0  0
   -4.1813    2.2676   -0.5325 H   0  0  0  0  0  0  0  0  0  0  0  0
   -4.9571   -0.0140    0.0631 H   0  0  0  0  0  0  0  0  0  0  0  0
   -3.3160   -1.8035    0.4925 H   0  0  0  0  0  0  0  0  0  0  0  0
   -1.7728    2.7514   -0.6954 H   0  0  0  0  0  0  0  0  0  0  0  0
    0.4440    2.0097   -0.5566 H   0  0  0  0  0  0  0  0  0  0  0  0
    2.1348   -3.0110    0.7662 H   0  0  0  0  0  0  0  0  0  0  0  0
    4.7282    0.3013   -0.1021 H   0  0  0  0  0  0  0  0  0  0  0  0
    2.7740    1.7472   -0.4798 H   0  0  0  0  0  0  0  0  0  0  0  0
  2  1  2  0  0  0  0
  3  2  1  0  0  0  0
  4  3  2  0  0  0  0
  5  4  1  0  0  0  0
  6  5  2  0  0  0  0
  6  1  1  0  0  0  0
  7  5  1  0  0  0  0
  8  7  1  0  0  0  0
  9  8  2  0  0  0  0
 10  9  1  0  0  0  0
 10  4  1  0  0  0  0
 11  9  1  0  0  0  0
 12 11  2  0  0  0  0
 13 12  1  0  0  0  0
 14 13  2  0  0  0  0
 14  8  1  0  0  0  0
 15 12  1  0  0  0  0
  1 16  1  0  0  0  0
  2 17  1  0  0  0  0
  3 18  1  0  0  0  0
  6 19  1  0  0  0  0
  7 20  1  0  0  0  0
 11 21  1  0  0  0  0
 13 22  1  0  0  0  0
 14 23  1  0  0  0  0
M  END
>  <energy>
43.73594258166748

$$$$
