C1=CN2C(=CC1)C1=CCC=CN1CCCC2
                    3D

 34 36  0  0  0  0  0  0  0  0999 V2000
    2.9484    1.7134   -0.4458 C   0  0  0  0  0  0  0  0  0  0  0  0
    2.2695    1.5593    0.6981 C   0  0  0  0  0  0  0  0  0  0  0  0
    1.2217    0.6624    0.8454 N   0  0  0  0  0  0  0  0  0  0  0  0
    0.8087   -0.0950   -0.2690 C   0  0  0  0  0  0  0  0  0  0  0  0
    1.4164    0.0157   -1.4708 C   0  0  0  0  0  0  0  0  0  0  0  0
    2.5818    0.9349   -1.6786 C   0  0  0  0  0  0  0  0  0  0  0  0
   -0.2477   -1.0819   -0.0937 C   0  0  0  0  0  0  0  0  0  0  0  0
    0.1528   -2.3774   -0.0055 C   0  0  0  0  0  0  0  0  0  0  0  0
   -0.8033   -3.5033    0.2455 C   0  0  0  0  0  0  0  0  0  0  0  0
   -2.2314   -3.0483    0.2208 C   0  0  0  0  0  0  0  0  0  0  0  0
   -2.5374   -1.7442    0.1467 C   0  0  0  0  0  0  0  0  0  0  0  0
   -1.6021   -0.7067    0.0756 N   0  0  0  0  0  0  0  0  0  0  0  0
   -2.1469    0.6745   -0.0891 C   0  0  0  0  0  0  0  0  0  0  0  0
   -1.3163    1.8825    0.3876 C   0  0  0  0  0  0  0  0  0  0  0  0
   -0.7190    1.8240    1.8041 C   0  0  0  0  0  0  0  0  0  0  0  0
    0.3408    0.7430    2.0264 C   0  0  0  0  0  0  0  0  0  0  0  0
    3.7516    2.4370   -0.5101 H   0  0  0  0  0  0  0  0  0  0  0  0
    2.4962    2.1495    1.5794 H   0  0  0  0  0  0  0  0  0  0  0  0
    1.0757   -0.5718   -2.3148 H   0  0  0  0  0  0  0  0  0  0  0  0
    3.4504    0.3465   -2.0033 H   0  0  0  0  0  0  0  0  0  0  0  0
    2.3292    1.6345   -2.4855 H   0  0  0  0  0  0  0  0  0  0  0  0
    1.2030   -2.6462   -0.0912 H   0  0  0  0  0  0  0  0  0  0  0  0
   -0.5868   -3.9394    1.2258 H   0  0  0  0  0  0  0  0  0  0  0  0
   -0.6481   -4.2882   -0.5054 H   0  0  0  0  0  0  0  0  0  0  0  0
   -3.0174   -3.7906    0.2649 H   0  0  0  0  0  0  0  0  0  0  0  0
   -3.5734   -1.4223    0.0991 H   0  0  0  0  0  0  0  0  0  0  0  0
   -2.3963    0.8171   -1.1512 H   0  0  0  0  0  0  0  0  0  0  0  0
   -3.1075    0.7399    0.4522 H   0  0  0  0  0  0  0  0  0  0  0  0
   -1.9769    2.7596    0.3492 H   0  0  0  0  0  0  0  0  0  0  0  0
   -0.5338    2.1298   -0.3441 H   0  0  0  0  0  0  0  0  0  0  0  0
   -1.5125    1.7219    2.5558 H   0  0  0  0  0  0  0  0  0  0  0  0
   -0.2493    2.7943    2.0019 H   0  0  0  0  0  0  0  0  0  0  0  0
    0.9328    0.9780    2.9196 H   0  0  0  0  0  0  0  0  0  0  0  0
   -0.1383   -0.2130    2.2604 H   0  0  0  0  0  0  0  0  0  0  0  0
  2  1  2  0  0  0  0
  3  2  1  0  0  0  0
  4  3  1  0  0  0  0
  5  4  2  0  0  0  0
  6  5  1  0  0  0  0
  6  1  1  0  0  0  0
  7  4  1  0  0  0  0
  8  7  2  0  0  0  0
  9  8  1  0  0  0  0
 10  9  1  0  0  0  0
 11 10  2  0  0  0  0
 12 11  1  0  0  0  0
 12  7  1  0  0  0  0
 13 12  1  0  0  0  0
 14 13  1  0  0  0  0
 15 14  1  0  0  0  0
 16 15  1  0  0  0  0
 16  3  1  0  0  0  0
  1 17  1  0  0  0  0
  2 18  1  0  0  0  0
  5 19  1  0  0  0  0
  6 20  1  0  0  0  0
  6 21  1  0  0  0  0
  8 22  1  0  0  0  0
  9 23  1  0  0  0  0
  9 24  1  0  0  0  0
 10 25  1  0  0  0  0
 11 26  1  0  0  0  0
 13 27  1  0  0  0  0
 13 28  1  0  0  0  0
 14 29  1  0  0  0  0
 14 30  1  0  0  0  0
 15 31  1  0  0  0  0
 15 32  1  0  0  0  0
 16 33  1  0  0  0  0
 16 34  1  0  0  0  0
M  END
>  <energy>
1.2867740044934806

$$$$
