C1=CN2C(=CC1)C1=CCC=CN1CC2
                    3D

 28 30  0  0  0  0  0  0  0  0999 V2000
    3.5776   -0.2451   -0.0241 C   0  0  0  0  0  0  0  0  0  0  0  0
    2.8075    0.7160    0.4995 C   0  0  0  0  0  0  0  0  0  0  0  0
    1.4215    0.7007    0.4396 N   0  0  0  0  0  0  0  0  0  0  0  0
    0.7421   -0.4033   -0.1298 C   0  0  0  0  0  0  0  0  0  0  0  0
    1.4541   -1.3984   -0.7069 C   0  0  0  0  0  0  0  0  0  0  0  0
    2.9593   -1.4207   -0.7213 C   0  0  0  0  0  0  0  0  0  0  0  0
   -0.7486   -0.3981   -0.1188 C   0  0  0  0  0  0  0  0  0  0  0  0
   -1.4757   -1.5367   -0.1850 C   0  0  0  0  0  0  0  0  0  0  0  0
   -2.9810   -1.5461   -0.1699 C   0  0  0  0  0  0  0  0  0  0  0  0
   -3.5818   -0.1755   -0.0729 C   0  0  0  0  0  0  0  0  0  0  0  0
   -2.7978    0.9060    0.0152 C   0  0  0  0  0  0  0  0  0  0  0  0
   -1.4118    0.8446    0.0258 N   0  0  0  0  0  0  0  0  0  0  0  0
   -0.6046    2.0711    0.1378 C   0  0  0  0  0  0  0  0  0  0  0  0
    0.6343    1.8106    1.0018 C   0  0  0  0  0  0  0  0  0  0  0  0
    4.6575   -0.1885    0.0445 H   0  0  0  0  0  0  0  0  0  0  0  0
    3.2419    1.5750    1.0025 H   0  0  0  0  0  0  0  0  0  0  0  0
    0.9690   -2.2317   -1.2005 H   0  0  0  0  0  0  0  0  0  0  0  0
    3.3026   -2.3412   -0.2361 H   0  0  0  0  0  0  0  0  0  0  0  0
    3.3067   -1.4436   -1.7603 H   0  0  0  0  0  0  0  0  0  0  0  0
   -1.0031   -2.5099   -0.2412 H   0  0  0  0  0  0  0  0  0  0  0  0
   -3.3267   -2.1498    0.6767 H   0  0  0  0  0  0  0  0  0  0  0  0
   -3.3392   -2.0264   -1.0875 H   0  0  0  0  0  0  0  0  0  0  0  0
   -4.6612   -0.0790   -0.0730 H   0  0  0  0  0  0  0  0  0  0  0  0
   -3.2208    1.9032    0.0886 H   0  0  0  0  0  0  0  0  0  0  0  0
   -1.1857    2.8841    0.5891 H   0  0  0  0  0  0  0  0  0  0  0  0
   -0.3079    2.3958   -0.8677 H   0  0  0  0  0  0  0  0  0  0  0  0
    1.2306    2.7304    1.0459 H   0  0  0  0  0  0  0  0  0  0  0  0
    0.3411    1.5565    2.0279 H   0  0  0  0  0  0  0  0  0  0  0  0
  2  1  2  0  0  0  0
  3  2  1  0  0  0  0
  4  3  1  0  0  0  0
  5  4  2  0  0  0  0
  6  5  1  0  0  0  0
  6  1  1  0  0  0  0
  7  4  1  0  0  0  0
  8  7  2  0  0  0  0
  9  8  1  0  0  0  0
 10  9  1  0  0  0  0
 11 10  2  0  0  0  0
 12 11  1  0  0  0  0
 12  7  1  0  0  0  0
 13 12  1  0  0  0  0
 14 13  1  0  0  0  0
 14  3  1  0  0  0  0
  1 15  1  0  0  0  0
  2 16  1  0  0  0  0
  5 17  1  0  0  0  0
  6 18  1  0  0  0  0
  6 19  1  0  0  0  0
  8 20  1  0  0  0  0
  9 21  1  0  0  0  0
  9 22  1  0  0  0  0
 10 23  1  0  0  0  0
 11 24  1  0  0  0  0
 13 25  1  0  0  0  0
 13 26  1  0  0  0  0
 14 27  1  0  0  0  0
 14 28  1  0  0  0  0
M  END
>  <energy>
20.400527672831295

$$$$
