%nproc=8
%mem=18000mb
#P PBE1PBE DEF2TZVPP OPT FREQ SCF(tight) INT(ultrafine)

 3d_2c_rd

 1 2
 C        3.5244060000       -0.5223850000        0.1207580000
 C        2.8278440000       -1.7187150000        0.4243950000
 C        2.8061800000        0.5694870000       -0.2752460000
 N        1.4459080000        0.5459080000       -0.3738570000
 C        1.4551630000       -1.7343620000        0.3597580000
 C        0.7188970000       -0.5811180000       -0.0003930000
 C       -0.7188260000       -0.5811400000        0.0006780000
 N       -1.4459690000        0.5456550000        0.3743030000
 C       -1.4549790000       -1.7343310000       -0.3599210000
 C       -2.8276530000       -1.7187460000       -0.4246210000
 C       -3.5243410000       -0.5226140000       -0.1206980000
 C       -2.8061790000        0.5692110000        0.2756800000
 C        0.7531590000        1.6684090000       -1.0025100000
 C       -0.0002570000        2.5300070000       -0.0003500000
 H        0.0613150000        1.2438720000       -1.7478150000
 H        1.4918360000        2.2603810000       -1.5579970000
 C       -0.7532820000        1.6686560000        1.0023140000
 H       -0.6909150000        3.1855550000       -0.5533000000
 H        0.6900010000        3.1864420000        0.5520380000
 H       -1.4919800000        2.2605740000        1.5577910000
 H       -0.0611330000        1.2444810000        1.7474940000
 H       -0.9042350000       -2.6288310000       -0.6529650000
 H       -3.3724250000       -2.6115200000       -0.7368460000
 H       -4.6106250000       -0.4587240000       -0.1863630000
 H       -3.2819670000        1.5106190000        0.5561410000
 H        3.3726600000       -2.6115540000        0.7363360000
 H        0.9045200000       -2.6290520000        0.6524020000
 H        4.6106950000       -0.4583800000        0.1862530000
 H        3.2818860000        1.5110410000       -0.5553560000

