%nproc=8
%mem=18000mb
#P PBE1PBE DEF2TZVPP OPT FREQ SCF(tight) INT(ultrafine)

 3d_2c_gn

 2 1
 C        3.5145490000       -0.5442110000        0.0819020000
 C        2.8274510000       -1.6384450000        0.5967070000
 C        2.7900480000        0.5126860000       -0.4486650000
 N        1.4439330000        0.4972490000       -0.4720110000
 C        1.4295190000       -1.6405360000        0.5706220000
 C        0.7432210000       -0.5591630000        0.0342920000
 C       -0.7432210000       -0.5591630000       -0.0342920000
 N       -1.4439330000        0.4972490000        0.4720110000
 C       -1.4295190000       -1.6405350000       -0.5706230000
 C       -2.8274510000       -1.6384450000       -0.5967070000
 C       -3.5145490000       -0.5442110000       -0.0819020000
 C       -2.7900480000        0.5126850000        0.4486650000
 C        0.7040850000        1.6344380000       -1.0607210000
 C       -0.0000000000        2.4730470000       -0.0000000000
 H       -0.0084040000        1.2106560000       -1.7846560000
 H        1.4147870000        2.2406700000       -1.6361180000
 C       -0.7040850000        1.6344380000        1.0607210000
 H       -0.7116800000        3.1332680000       -0.5198930000
 H        0.7116790000        3.1332690000        0.5198930000
 H       -1.4147870000        2.2406700000        1.6361180000
 H        0.0084050000        1.2106560000        1.7846560000
 H       -0.8679050000       -2.4803270000       -0.9852630000
 H       -3.3693870000       -2.4878770000       -1.0216120000
 H       -4.6060060000       -0.4979930000       -0.0809140000
 H       -3.2740020000        1.3931000000        0.8780800000
 H        3.3693870000       -2.4878770000        1.0216120000
 H        0.8679050000       -2.4803270000        0.9852620000
 H        4.6060060000       -0.4979930000        0.0809150000
 H        3.2740030000        1.3931010000       -0.8780790000

