%nproc=8
%mem=18000mb
#P PBE1PBE DEF2TZVPP OPT FREQ SCF(tight) INT(ultrafine)

 n-methylaniline_n_ox

 1 2
 C        0.0164800000       -0.0327500000        0.0273000000
 N       -1.4201200000        0.1357800000       -0.1537100000
 C       -2.0998600000       -0.5622300000       -1.1525700000
 C       -1.4313400000       -1.1454900000       -2.2438800000
 C       -2.1542800000       -1.7838200000       -3.2523500000
 C       -3.5444400000       -1.8672800000       -3.1989700000
 C       -4.2120700000       -1.2962700000       -2.1107300000
 C       -3.5055000000       -0.6527000000       -1.1025800000
 H        0.3188200000       -1.0861600000        0.1391500000
 H        0.5573000000        0.3921400000       -0.8250100000
 H        0.3175800000        0.5179600000        0.9215700000
 H       -1.9393600000        0.1991100000        0.7135500000
 H       -0.3487700000       -1.1005800000       -2.3083100000
 H       -1.6154400000       -2.2255600000       -4.0869200000
 H       -4.0993900000       -2.3687300000       -3.9859900000
 H       -5.2957500000       -1.3533900000       -2.0459300000
 H       -4.0373800000       -0.2060300000       -0.2643300000

