%nproc=8
%mem=18000mb
#P PBE1PBE DEF2TZVPP OPT FREQ SCF(tight) INT(ultrafine)

 22-dicyano-11-dimethyl-3p_2c_rd

 1 2
 N        3.5584790000       -0.5859720000       -0.0000320000
 C        2.8568290000       -1.7487050000       -0.0000600000
 C        1.4896090000       -1.7834950000       -0.0000540000
 C        2.8551340000        0.5988620000        0.0000040000
 C        1.4793410000        0.6158340000        0.0000090000
 C        0.7170650000       -0.5826800000       -0.0000220000
 H        1.0085730000        1.5980750000        0.0000440000
 H        3.4519080000       -2.6630090000       -0.0000950000
 H        1.0202440000       -2.7660730000       -0.0000930000
 C       -0.7170640000       -0.5826810000       -0.0000020000
 C       -1.4896090000       -1.7834960000        0.0000700000
 C       -2.8568290000       -1.7487050000        0.0000750000
 C       -1.4793400000        0.6158330000       -0.0000510000
 C       -2.8551330000        0.5988620000       -0.0000470000
 N       -3.5584790000       -0.5859720000        0.0000070000
 H       -1.0085720000        1.5980750000       -0.0001080000
 H       -1.0202440000       -2.7660740000        0.0001330000
 H       -3.4519070000       -2.6630090000        0.0001290000
 C       -5.0174750000       -0.5808210000        0.0000420000
 H       -5.3965700000       -0.0669130000        0.8948310000
 H       -5.3757910000       -1.6159540000       -0.0001620000
 H       -5.3966020000       -0.0665590000       -0.8945260000
 C        5.0174760000       -0.5808210000        0.0000060000
 H        5.3757910000       -1.6159540000       -0.0002190000
 H        5.3965670000       -0.0669330000        0.8948070000
 H        5.3966050000       -0.0665390000       -0.8945500000
 C       -3.6022640000        1.8166580000       -0.0001180000
 C        3.6022640000        1.8166580000        0.0000340000
 N        4.1998270000        2.8097620000        0.0001540000
 N       -4.1998300000        2.8097600000       -0.0000570000

