14
energy:      -287.3707542770
C         -0.90259       -0.00000       -0.02417
N         -2.31566       -0.00000        0.03332
C         -0.22720        1.21059       -0.01544
H         -0.75815        2.14648       -0.01221
C          1.17552        1.20697        0.00395
H          1.70425        2.14536        0.00887
C          1.86686        0.00000        0.00928
H          2.95313        0.00001        0.01485
C          1.17552       -1.20696        0.00395
H          1.70426       -2.14535        0.00888
C         -0.22719       -1.21059       -0.01544
H         -0.75814       -2.14649       -0.01221
H         -2.80040       -0.88153        0.23101
H         -2.80039        0.88153        0.23101
