16
energy:      -346.4925589110
C          2.28834        0.33628       -0.00000
C          1.34404        1.36407       -0.00000
H          1.66263        2.39809       -0.00000
C         -0.02049        1.06412        0.00001
H         -0.72543        1.87901        0.00000
C         -0.44602       -0.28228       -0.00000
C          0.50664       -1.30681        0.00000
H          0.18574       -2.34012       -0.00000
C          1.87037       -0.99938        0.00000
H          2.60046       -1.79753        0.00000
H          3.34378        0.57359        0.00000
O         -1.75977       -0.61627        0.00000
C         -2.78060        0.30533       -0.00000
H         -3.75601       -0.22099       -0.00000
H         -2.71450        0.94226       -0.90921
H         -2.71450        0.94226        0.90921
