16
energy:      -213.6070731970
N          0.00614       -0.93432        0.39673
C          1.34059       -0.55851       -0.09560
C         -1.13410       -0.49591       -0.42046
C         -1.79983        0.76694        0.13429
C          1.61852        0.94318       -0.03081
H         -1.89775       -1.30283       -0.39916
H          2.09460       -1.07571        0.53718
H         -2.68579        1.01930       -0.48643
H         -1.11125        1.63388        0.12439
H          2.66712        1.13022       -0.34843
H          0.95780        1.49910       -0.72536
H         -0.12116       -0.74113        1.42050
H         -2.14167        0.59611        1.17730
H          1.48910        1.32206        1.00522
H         -0.83776       -0.34799       -1.48152
H          1.47734       -0.91922       -1.13646
