16
energy:      -363.5237097340
C          2.12924       -0.71775        0.00000
C          2.15606        0.68759       -0.00000
C          0.95376        1.43071       -0.00000
C         -0.25163        0.73170        0.00000
C         -0.26436       -0.63072        0.00000
C          0.90766       -1.40574        0.00000
H          1.00052        2.50878       -0.00000
H          3.06259       -1.26795        0.00000
H          3.10534        1.20325       -0.00000
C         -1.58573        1.16539        0.00000
H         -1.98091        2.17638        0.00000
C         -2.35294        0.00253       -0.00000
N         -1.54311       -1.07920        0.00000
H         -3.44065       -0.06698       -0.00001
H         -1.87309       -2.06416        0.00000
H          0.89955       -2.49443        0.00000
