17
energy:      -326.6391457550
C         -2.85158        0.37241        0.09672
N         -1.80725       -0.61501        0.01145
C         -0.42089       -0.27206       -0.01288
C          0.00416        1.07002       -0.03269
C          1.37020        1.37279       -0.00954
C          2.31355        0.34317        0.02703
C          1.89845       -0.98954        0.02859
C          0.53516       -1.29646        0.00737
H         -2.74302        0.93747        1.04795
H         -2.80548        1.06835       -0.76429
H         -3.84257       -0.13131        0.09245
H         -2.07262       -1.61423        0.01407
H         -0.70499        1.88836       -0.05464
H          1.69372        2.40501       -0.01597
H          3.36976        0.57766        0.05630
H          2.62648       -1.78906        0.05389
H          0.22346       -2.33197        0.01138
