13
energy:      -766.6974471990
C          0.27780       -1.20971        0.00000
C         -1.11726       -1.20094        0.00000
C         -1.81059        0.01827       -0.00000
O         -3.15691        0.03152        0.00000
C         -1.10567        1.22355       -0.00000
C          0.29133        1.21423       -0.00000
H          0.83339        2.15114       -0.00000
C          0.98495       -0.00284       -0.00000
H          0.80765       -2.15359        0.00000
H         -3.66376       -0.79473        0.00000
H         -1.63917        2.16587       -0.00000
H         -1.66119       -2.13780        0.00000
Cl         2.73686       -0.01259        0.00000
