14
energy:      -399.4036131590
C         -0.36540       -1.20170       -0.00000
C          1.01566       -1.19334        0.00000
C          1.70489        0.01650        0.00000
O          3.05178        0.08423        0.00000
C          1.00250        1.21894       -0.00000
C         -0.37597        1.20823       -0.00000
H         -0.92531        2.14087       -0.00001
C         -1.07523       -0.00147        0.00000
C         -2.49989       -0.00991        0.00000
H         -0.90280       -2.14123       -0.00001
H          3.42334       -0.80053       -0.00001
H          1.55481        2.14960       -0.00000
H          1.56303       -2.13009       -0.00000
N         -3.65238       -0.01656       -0.00000
