16
energy:      -346.5124655920
C          0.66039        1.21020        0.00000
C         -0.73695        1.19581        0.00002
C         -1.42877       -0.02294       -0.00001
O         -2.77695       -0.04497        0.00001
C         -0.71586       -1.22787        0.00001
C          0.68368       -1.21562       -0.00000
H          1.22550       -2.15355        0.00000
C          1.37923        0.00354       -0.00000
C          2.87906        0.01179        0.00000
H          1.18158        2.16011        0.00001
H         -3.29729        0.77251        0.00000
H         -1.24574       -2.17189       -0.00001
H         -1.28036        2.13202       -0.00000
H          3.28046        1.04757       -0.00000
H          3.25663       -0.50942       -0.90501
H          3.25664       -0.50942        0.90501
