18
energy:      -401.8123851650
C         -1.81866       -0.11253       -0.03547
N         -3.20733       -0.30208        0.03078
C         -0.96397       -1.20054       -0.01730
H         -1.35500       -2.20729       -0.01327
C          0.41343       -1.00982       -0.00021
H          1.05507       -1.87311        0.00173
C          0.93444        0.30969        0.00352
O          2.26028        0.53778        0.00637
C          0.08026        1.37625        0.00033
H          0.47319        2.39291        0.00497
C         -1.29937        1.19504       -0.01720
H         -1.95654        2.03970       -0.01351
C          3.19013       -0.48195        0.00355
H          4.20191       -0.05655        0.00564
H          3.06109       -1.11595       -0.90181
H          3.06064       -1.12384        0.90328
H         -3.55666       -1.23451        0.25207
H         -3.79799        0.49717        0.27168
