17
energy:      -421.6728448100
C         -0.92005        0.29341       -0.00248
C         -0.04562        1.37861       -0.00065
H         -0.43383        2.38956       -0.00039
C          1.33393        1.16100        0.00019
H          2.00230        2.01554        0.00015
C          1.84574       -0.13757       -0.00050
O          3.17337       -0.33973        0.00038
H          3.78600        0.41111        0.00096
C          0.97633       -1.22637       -0.00096
H          1.36556       -2.24100       -0.00047
C         -0.39807       -1.02110       -0.00102
H         -1.04853       -1.88277       -0.00098
O         -2.25510        0.52797       -0.00046
C         -3.20543       -0.47092        0.00001
H         -4.21220       -0.01778        0.00046
H         -3.08599       -1.09938       -0.91002
H         -3.08545       -1.09911        0.91067
