17
energy:      -326.6522082260
C          1.40376        0.00001       -0.02502
N          2.81485       -0.00021        0.04460
C          0.72378        1.20854       -0.02077
H          1.25076        2.14468       -0.01639
C         -0.68362        1.20674       -0.01027
H         -1.20342        2.14557       -0.01077
C         -1.37968        0.00009       -0.00250
C         -2.89224       -0.00009        0.02013
C         -0.68385       -1.20656       -0.00786
H         -1.20383       -2.14531       -0.01009
C          0.72363       -1.20846       -0.02015
H          1.25040       -2.14466       -0.01649
H         -3.30164        0.90963       -0.46267
H         -3.26575       -0.02699        1.06408
H         -3.30202       -0.88359       -0.50908
H          3.29633        0.87946        0.25454
H          3.29602       -0.87998        0.25505
