13
energy:      -307.2307832030
C          0.93281       -0.04251       -0.00004
H          2.73872        0.77339       -0.00012
O          2.26527       -0.06991       -0.00011
C          0.22072       -1.22208       -0.00002
C         -1.16896       -1.17924        0.00004
C         -1.85135        0.04123        0.00009
C         -1.12907        1.21832        0.00007
C          0.26255        1.19248        0.00000
H          0.74849       -2.16764       -0.00006
H         -1.72492       -2.11418        0.00006
H         -2.93093        0.04969        0.00014
H         -1.64355        2.17056        0.00010
H          0.82238        2.11908       -0.00001
