17
energy:      -251.6949834210
C          0.74390        1.21109        0.20250
C         -0.72161        1.25525       -0.24373
C         -1.45301       -0.00000        0.24667
C         -0.72164       -1.25522       -0.24373
C          0.74385       -1.21118        0.20249
N          1.39438       -0.00006       -0.31844
H          0.80800        1.23109        1.31505
H          1.26947        2.10938       -0.18682
H          1.26947       -2.10946       -0.18682
H          0.80797       -1.23113        1.31506
H         -0.76051        1.29695       -1.35465
H         -1.21699        2.16392        0.15985
H         -2.50072        0.00003       -0.12104
H         -1.47053        0.00000        1.35905
H         -0.76054       -1.29694       -1.35466
H         -1.21705       -2.16390        0.15987
H          2.39685       -0.00005       -0.02265
