%nproc=8
%mem=18000mb
#P PBE1PBE DEF2TZVPP OPT FREQ SCF(tight) INT(ultrafine)

 14-dihydroxy-2-sulfonate-910-aq_a_rd

-2 2
 C       -5.3454550000       -0.0640170000       -0.0000730000
 C       -5.0355540000       -1.4467700000        0.0001140000
 C       -4.3273040000        0.8683390000       -0.0001440000
 C       -2.9702420000        0.4738330000       -0.0000340000
 C       -2.6576880000       -0.9193880000        0.0001340000
 C       -3.7156510000       -1.8542360000        0.0002120000
 C       -1.9256140000        1.4778350000       -0.0000740000
 C       -0.5590960000        1.0071070000        0.0000330000
 C       -0.2366130000       -0.3906580000        0.0000840000
 C       -1.2824310000       -1.3917350000        0.0001930000
 H       -3.4346150000       -2.9107330000        0.0003420000
 H       -5.8413350000       -2.1885150000        0.0001730000
 H       -6.3910980000        0.2622650000       -0.0001540000
 H       -4.5249980000        1.9435790000       -0.0002750000
 C        1.1260970000       -0.8161570000        0.0000340000
 C        2.1483390000        0.1564470000        0.0000140000
 C        1.8193730000        1.5102370000        0.0000130000
 C        0.4949510000        1.9573000000        0.0000470000
 H        2.6426880000        2.2276570000        0.0000250000
 O       -1.0303120000       -2.6371750000        0.0004370000
 O       -2.2112520000        2.7208570000       -0.0003950000
 O        1.4119650000       -2.1107710000       -0.0001290000
 H        0.5149510000       -2.5694370000       -0.0003020000
 O        0.2242350000        3.2704580000        0.0001760000
 H       -0.7873320000        3.3058530000        0.0004560000
 S        3.9172720000       -0.2895040000       -0.0000910000
 O        4.6146180000        1.0215010000       -0.0004220000
 O        4.1171840000       -1.0601620000        1.2444620000
 O        4.1169020000       -1.0606380000       -1.2443950000

