%nproc=8
%mem=18000mb
#P PBE1PBE DEF2TZVPP OPT FREQ SCF(tight) INT(ultrafine)

 14-dihydroxy-2-sulfonate-910-aq_a_ox

 0 2
 C       -5.3405460000       -0.1083530000       -0.0000550000
 C       -5.0217440000       -1.4694420000       -0.0000230000
 C       -4.3296440000        0.8471200000       -0.0000510000
 C       -2.9906350000        0.4466120000       -0.0000170000
 C       -2.6698140000       -0.9237460000        0.0000150000
 C       -3.6917140000       -1.8769950000        0.0000130000
 C       -1.9274360000        1.4743450000       -0.0000060000
 C       -0.5318720000        1.0265710000       -0.0000040000
 C       -0.2111070000       -0.3552690000        0.0000300000
 C       -1.2610150000       -1.3733660000        0.0000620000
 H       -3.4154530000       -2.9332290000        0.0000420000
 H       -5.8191460000       -2.2162130000       -0.0000250000
 H       -6.3866060000        0.2067130000       -0.0000830000
 H       -4.5509180000        1.9162380000       -0.0000730000
 C        1.1323560000       -0.7833970000        0.0000360000
 C        2.1416870000        0.2204770000        0.0000160000
 C        1.8349630000        1.5628060000       -0.0000130000
 C        0.4898220000        1.9971090000       -0.0000270000
 H        2.6346730000        2.3060310000       -0.0000360000
 O       -0.9837690000       -2.5773570000        0.0000790000
 O       -2.2097380000        2.6757110000       -0.0000380000
 O        1.4723270000       -2.0486930000        0.0000070000
 H        0.6164760000       -2.5689450000       -0.0000130000
 O        0.2465090000        3.2929200000       -0.0000780000
 H       -0.7439220000        3.3928390000       -0.0001020000
 S        3.8520320000       -0.2510070000        0.0000050000
 O        4.6401450000        0.9667040000       -0.0001270000
 O        4.0605810000       -1.1666600000        1.1626910000
 O        4.0605160000       -1.1668960000       -1.1624900000

