%nproc=8
%mem=18000mb
#P PBE1PBE DEF2TZVPP OPT FREQ SCF(tight) INT(ultrafine)

 112-dimethyl-3c_2c_gn

 2 1
 C       -3.5070230000       -0.1131690000        0.2168850000
 C       -2.9209130000        1.0232640000       -0.3156360000
 C       -1.5236000000        1.1308490000       -0.4765820000
 C       -2.6933460000       -1.1954760000        0.5149320000
 N       -1.3635110000       -1.0972980000        0.3808280000
 C       -0.7426050000        0.0583520000       -0.0197770000
 C        0.7426050000        0.0583520000        0.0197770000
 N        1.3635110000       -1.0972970000       -0.3808290000
 C       -0.5161350000       -2.2887810000        0.5525940000
 C        0.5161360000       -2.2887810000       -0.5525960000
 H       -1.1497390000       -3.1823520000        0.4886100000
 H       -0.0453800000       -2.2670020000        1.5490920000
 H        0.0453800000       -2.2670020000       -1.5490930000
 H        1.1497390000       -3.1823520000       -0.4886110000
 C        1.5236000000        1.1308490000        0.4765820000
 C        2.9209130000        1.0232640000        0.3156360000
 C        3.5070230000       -0.1131690000       -0.2168850000
 C        2.6933470000       -1.1954760000       -0.5149330000
 H       -4.5880670000       -0.1968770000        0.3474000000
 H       -3.0873670000       -2.1604820000        0.8423490000
 H        4.5880670000       -0.1968770000       -0.3473990000
 H        3.0873670000       -2.1604820000       -0.8423500000
 H       -3.5526040000        1.8553570000       -0.6410010000
 H        3.5526040000        1.8553570000        0.6410020000
 C        0.9801980000        2.3303840000        1.1860490000
 H       -0.0742070000        2.2310710000        1.4665880000
 H        1.1045520000        3.2442700000        0.5850450000
 H        1.5592510000        2.4845510000        2.1098740000
 C       -0.9801980000        2.3303850000       -1.1860480000
 H       -1.5592510000        2.4845520000       -2.1098730000
 H        0.0742070000        2.2310720000       -1.4665870000
 H       -1.1045530000        3.2442700000       -0.5850430000

