%nproc=8
%mem=18000mb
#P PBE1PBE DEF2TZVPP OPT FREQ SCF(tight) INT(ultrafine)

 112-dimethyl-3c_2c_ox

 3 2
 C       -3.5123410000       -0.0559980000        0.2248370000
 C       -2.9222540000        1.1005980000       -0.2320660000
 C       -1.5182670000        1.1662340000       -0.4455610000
 C       -2.7039730000       -1.1933580000        0.4425160000
 N       -1.3781160000       -1.1381610000        0.2994750000
 C       -0.7264110000        0.0353060000       -0.0246370000
 C        0.7264110000        0.0353060000        0.0246370000
 N        1.3781160000       -1.1381610000       -0.2994750000
 C       -0.5566300000       -2.3515270000        0.5088410000
 C        0.5566300000       -2.3515270000       -0.5088410000
 H       -1.1952470000       -3.2358050000        0.3732100000
 H       -0.1804920000       -2.3551980000        1.5465160000
 H        0.1804920000       -2.3551980000       -1.5465160000
 H        1.1952470000       -3.2358050000       -0.3732100000
 C        1.5182670000        1.1662340000        0.4455610000
 C        2.9222540000        1.1005980000        0.2320660000
 C        3.5123410000       -0.0559980000       -0.2248370000
 C        2.7039730000       -1.1933580000       -0.4425160000
 H       -4.5950890000       -0.1365640000        0.3736630000
 H       -3.1340730000       -2.1563390000        0.7429030000
 H        4.5950890000       -0.1365640000       -0.3736630000
 H        3.1340730000       -2.1563390000       -0.7429030000
 H       -3.5399100000        1.9706980000       -0.4836290000
 H        3.5399100000        1.9706980000        0.4836280000
 C        0.9824300000        2.3051860000        1.2163930000
 H       -0.1026310000        2.3126860000        1.3639890000
 H        1.3378280000        3.2718720000        0.8164900000
 H        1.4367440000        2.2571270000        2.2319930000
 C       -0.9824300000        2.3051860000       -1.2163930000
 H       -1.4367440000        2.2571270000       -2.2319930000
 H        0.1026310000        2.3126860000       -1.3639890000
 H       -1.3378270000        3.2718720000       -0.8164900000

