%nproc=8
%mem=18000mb
#P PBE1PBE DEF2TZVPP OPT FREQ SCF(tight) INT(ultrafine)

 112-dimethyl-3c_2c_rd

 1 2
 C        3.5177680000       -0.1340330000       -0.2139050000
 C        2.9154320000        1.0469950000        0.2710200000
 C        1.5430010000        1.1590800000        0.4157180000
 C        2.7169030000       -1.2130320000       -0.4549920000
 N        1.3680040000       -1.1267110000       -0.3291650000
 C        0.7193200000        0.0630870000        0.0080940000
 C       -0.7193200000        0.0630870000       -0.0080940000
 N       -1.3680040000       -1.1267110000        0.3291650000
 C        0.5435210000       -2.3054240000       -0.5275630000
 C       -0.5435210000       -2.3054240000        0.5275630000
 H        1.1728350000       -3.2005170000       -0.4407390000
 H        0.0941390000       -2.2919490000       -1.5357560000
 H       -0.0941390000       -2.2919490000        1.5357570000
 H       -1.1728350000       -3.2005170000        0.4407400000
 C       -1.5430010000        1.1590800000       -0.4157180000
 C       -2.9154320000        1.0469950000       -0.2710200000
 C       -3.5177680000       -0.1340330000        0.2139050000
 C       -2.7169030000       -1.2130310000        0.4549920000
 H        4.5983060000       -0.2217190000       -0.3268460000
 H        3.1070890000       -2.1899130000       -0.7455540000
 H       -4.5983060000       -0.2217190000        0.3268460000
 H       -3.1070890000       -2.1899130000        0.7455540000
 H        3.5493950000        1.8730380000        0.6023780000
 H       -3.5493950000        1.8730390000       -0.6023790000
 C       -0.9980610000        2.3617700000       -1.1325270000
 H        0.0364420000        2.2216790000       -1.4678880000
 H       -1.0400630000        3.2668580000       -0.5097150000
 H       -1.6146530000        2.5588420000       -2.0215470000
 C        0.9980610000        2.3617690000        1.1325270000
 H        1.6146530000        2.5588420000        2.0215470000
 H       -0.0364420000        2.2216790000        1.4678880000
 H        1.0400640000        3.2668580000        0.5097160000

