%nproc=8
%mem=18000mb
#P PBE1PBE DEF2TZVPP OPT FREQ SCF(tight) INT(ultrafine)

 3-cyano-3c_2c_rd

 1 2
 H       -0.2724650000        2.0064630000        1.5039360000
 C       -0.0147290000        1.9826470000        0.4312230000
 C       -3.4625360000       -1.5839990000        0.1425530000
 C       -2.0903210000       -1.6205450000        0.1377080000
 C        2.1256260000        0.8670570000        0.1323280000
 N        0.7754120000        0.7914800000        0.1521550000
 H        0.5850080000        2.8730230000        0.2027940000
 H        2.5562730000        1.8638490000        0.2443800000
 C       -4.1346230000       -0.3441940000        0.0138800000
 C        0.1007960000       -0.4184250000        0.0124840000
 C       -1.3250560000       -0.4343510000        0.0034190000
 C        2.9139740000       -0.2512710000       -0.0101890000
 C       -3.3855460000        0.7899320000       -0.1270910000
 H       -5.2224980000       -0.2758950000        0.0273280000
 C        0.8995320000       -1.5847460000       -0.1167040000
 C        2.2655710000       -1.5216140000       -0.1302030000
 N       -2.0253360000        0.7520980000       -0.1418830000
 C       -1.2677880000        1.9653780000       -0.4142970000
 H       -3.8321030000        1.7793880000       -0.2420210000
 H       -1.8928480000        2.8370770000       -0.1817070000
 H       -1.0106170000        2.0027320000       -1.4867530000
 C        4.3336300000       -0.1227850000       -0.0368670000
 N        5.4885200000       -0.0250380000       -0.0591150000
 H       -4.0317130000       -2.5081710000        0.2597780000
 H       -1.5753270000       -2.5709450000        0.2704370000
 H        0.4102970000       -2.5499060000       -0.2402740000
 H        2.8646400000       -2.4259080000       -0.2454590000

