%nproc=8
%mem=18000mb
#P PBE1PBE DEF2TZVPP OPT FREQ SCF(tight) INT(ultrafine)

 3-cyano-3c_2c_ox

 3 2
 H        0.2639570000        2.0419590000       -1.5053950000
 C        0.0308900000        2.0225780000       -0.4261350000
 C        3.4584720000       -1.6073060000       -0.2160770000
 C        2.0597440000       -1.6147840000       -0.1967350000
 C       -2.1076580000        0.8804570000       -0.1693390000
 N       -0.7819490000        0.8052250000       -0.1642050000
 H       -0.5731060000        2.9098450000       -0.1884640000
 H       -2.5630630000        1.8657750000       -0.3317580000
 C        4.1227710000       -0.4005100000       -0.0296300000
 C       -0.1198650000       -0.4001410000        0.0104670000
 C        1.3341000000       -0.4193290000       -0.0050310000
 C       -2.9137840000       -0.2844520000        0.0194390000
 C        3.3674860000        0.7771560000        0.1642210000
 H        5.2173120000       -0.3333720000       -0.0290310000
 C       -0.8890580000       -1.5724330000        0.1995730000
 C       -2.2720920000       -1.5314880000        0.2113410000
 N        2.0318510000        0.7578870000        0.1645470000
 C        1.2707620000        1.9982130000        0.4305030000
 H        3.8535760000        1.7463100000        0.3281170000
 H        1.9018570000        2.8643580000        0.1845870000
 H        1.0419090000        2.0398790000        1.5097100000
 C       -4.3104380000       -0.1469370000        0.0099920000
 N       -5.4822770000       -0.0307350000        0.0013170000
 H        4.0139810000       -2.5381460000       -0.3771140000
 H        1.5355320000       -2.5579640000       -0.3668230000
 H       -0.3925370000       -2.5291350000        0.3761320000
 H       -2.8607650000       -2.4423050000        0.3728910000

