%nproc=8
%mem=18000mb
#P PBE1PBE DEF2TZVPP OPT FREQ SCF(tight) INT(ultrafine)

 3-cyano-3c_2c_gn

 2 1
 H        0.3069880000        1.9950390000       -1.5112060000
 C        0.0362680000        1.9789610000       -0.4422490000
 C        3.4662420000       -1.5691020000       -0.2562850000
 C        2.0700140000       -1.5947330000       -0.2596520000
 C       -2.1153820000        0.8606720000       -0.1979790000
 N       -0.7759640000        0.7737000000       -0.1869810000
 H       -0.5722350000        2.8670850000       -0.2282830000
 H       -2.5497540000        1.8470340000       -0.3800180000
 C        4.1283850000       -0.3681900000       -0.0161280000
 C       -0.1271320000       -0.4076490000        0.0237210000
 C        1.3497210000       -0.4289430000       -0.0193840000
 C       -2.9121410000       -0.2656760000        0.0161350000
 C        3.3764280000        0.7761160000        0.1986970000
 H        5.2190000000       -0.3029440000       -0.0050580000
 C       -0.8851450000       -1.5512890000        0.2635220000
 C       -2.2755030000       -1.4919380000        0.2593180000
 N        2.0303800000        0.7345780000        0.1905350000
 C        1.2542450000        1.9600160000        0.4467440000
 H        3.8339900000        1.7519070000        0.3806640000
 H        1.8866580000        2.8311200000        0.2318230000
 H        0.9831690000        1.9875560000        1.5154610000
 C       -4.3328850000       -0.1363750000       -0.0019040000
 N       -5.4862120000       -0.0289270000       -0.0177020000
 H        4.0294930000       -2.4866470000       -0.4480190000
 H        1.5465880000       -2.5274550000       -0.4735250000
 H       -0.3908670000       -2.4993360000        0.4789950000
 H       -2.8691470000       -2.3900320000        0.4508590000

