16
 energy:      -213.6070731970
 N        0.0098980000       -0.9684740000        0.3667060000
 C        1.3205670000       -0.5451160000       -0.0778040000
 C       -1.1387530000       -0.5023920000       -0.3875340000
 C       -1.8099760000        0.7632990000        0.1315510000
 C        1.6354520000        0.9476620000       -0.0388980000
 H       -1.8892100000       -1.3013980000       -0.4159670000
 H        2.0568310000       -1.0798200000        0.5300630000
 H       -2.6909550000        1.0098380000       -0.4668050000
 H       -1.1370460000        1.6216300000        0.1160540000
 H        2.6706160000        1.1281780000       -0.3406980000
 H        0.9927470000        1.5146240000       -0.7152960000
 H       -0.1124300000       -0.7976340000        1.3552630000
 H       -2.1464860000        0.6218800000        1.1625180000
 H        1.5050920000        1.3514530000        0.9685120000
 H       -0.8190590000       -0.3570210000       -1.4240680000
 H        1.4568780000       -0.9131340000       -1.1004120000
