10
 energy:      -135.0496021440
 N       -0.0000000000        0.5602870000       -0.1467390000
 H       -1.2582310000       -0.7629530000        0.9791950000
 C       -1.2038260000       -0.2208050000        0.0201240000
 C        1.2038260000       -0.2208050000        0.0201240000
 H       -2.0806640000        0.4239580000       -0.0587330000
 H        1.2691300000       -0.9644250000       -0.7788440000
 H       -1.2691280000       -0.9644270000       -0.7788430000
 H        0.0000000000        1.3345020000        0.5024480000
 H        2.0806630000        0.4239580000       -0.0587300000
 H        1.2582290000       -0.7629550000        0.9791930000
