14
 energy:      -746.8380179320
 C       -0.2855810000       -1.1999540000       -0.0024270000
 C        1.0978910000       -1.1981380000       -0.0058770000
 C        1.8147210000       -0.0000010000       -0.0067600000
 C        1.0978950000        1.1981350000       -0.0058630000
 C       -0.2855810000        1.1999540000       -0.0024280000
 H       -0.8295080000        2.1356750000       -0.0000930000
 C       -0.9780060000        0.0000020000       -0.0006760000
 H       -0.8295120000       -2.1356730000       -0.0000980000
 H        1.6314690000        2.1423200000       -0.0120170000
 H        1.6314680000       -2.1423200000       -0.0120630000
Cl       -2.7093100000        0.0000010000        0.0059920000
 N        3.1987040000       -0.0000130000       -0.0670650000
 H        3.6476950000        0.8353390000        0.2678920000
 H        3.6477040000       -0.8352490000        0.2681680000
