14
 energy:      -399.4036131590
 C       -0.3654030000       -1.2017040000       -0.0000020000
 C        1.0156640000       -1.1933430000       -0.0000000000
 C        1.7048920000        0.0165050000        0.0000040000
 O        3.0517760000        0.0842310000       -0.0000000000
 C        1.0025030000        1.2189390000       -0.0000010000
 C       -0.3759730000        1.2082270000       -0.0000030000
 H       -0.9253050000        2.1408710000       -0.0000060000
 C       -1.0752340000       -0.0014750000        0.0000040000
 C       -2.4998900000       -0.0099120000        0.0000040000
 H       -0.9028050000       -2.1412270000       -0.0000050000
 H        3.4233360000       -0.8005310000       -0.0000050000
 H        1.5548130000        2.1495960000       -0.0000010000
 H        1.5630250000       -2.1300900000       -0.0000010000
 N       -3.6523750000       -0.0165550000       -0.0000020000
