17
 energy:      -326.6522082260
 C        1.4350840000        0.0000630000       -0.0046000000
 N        2.8234690000       -0.0002620000       -0.0632630000
 C        0.7167020000        1.1955680000       -0.0080840000
 H        1.2505160000        2.1402160000       -0.0179860000
 C       -0.6677340000        1.1873640000       -0.0104100000
 H       -1.1975380000        2.1344640000       -0.0153120000
 C       -1.3935590000        0.0002690000       -0.0085360000
 C       -2.8928530000       -0.0001020000        0.0219010000
 C       -0.6678200000       -1.1871630000       -0.0104180000
 H       -1.1976840000       -2.1342550000       -0.0153660000
 C        0.7163850000       -1.1955030000       -0.0081110000
 H        1.2501460000       -2.1401860000       -0.0180570000
 H       -3.3002430000        0.8940310000       -0.4531070000
 H       -3.2728630000       -0.0247980000        1.0479300000
 H       -3.3012300000       -0.8701270000       -0.4954320000
 H        3.2638690000        0.8328760000        0.2895910000
 H        3.2635120000       -0.8333560000        0.2901400000
