18
 energy:      -401.8123851650
 C       -1.8384730000       -0.1113840000       -0.0079420000
 N       -3.2192760000       -0.3016290000       -0.0757930000
 C       -0.9599970000       -1.1881270000       -0.0064100000
 H       -1.3528440000       -2.1994200000       -0.0136400000
 C        0.4171800000       -0.9993040000       -0.0017050000
 H        1.0629400000       -1.8669590000        0.0005940000
 C        0.9454580000        0.2846050000        0.0013900000
 O        2.2736850000        0.5776040000        0.0078240000
 C        0.0731440000        1.3697730000       -0.0003760000
 H        0.4884390000        2.3701100000        0.0028900000
 C       -1.2929120000        1.1749770000       -0.0062890000
 H       -1.9532980000        2.0357440000       -0.0143540000
 C        3.1739000000       -0.4980950000        0.0033720000
 H        4.1721350000       -0.0641480000        0.0054910000
 H        3.0564040000       -1.1204690000       -0.8907970000
 H        3.0563030000       -1.1282670000        0.8921130000
 H       -3.5337560000       -1.1869290000        0.2864950000
 H       -3.7606710000        0.4562410000        0.3069280000
