13
 energy:      -307.2307832030
 C        0.9364590000       -0.0267980000       -0.0000440000
 H        2.6628970000        0.7734800000       -0.0001150000
 O        2.2909080000       -0.1102870000       -0.0001080000
 C        0.2183280000       -1.2170320000       -0.0000250000
 C       -1.1655920000       -1.1812240000        0.0000400000
 C       -1.8457770000        0.0297400000        0.0000870000
 C       -1.1226040000        1.2123420000        0.0000670000
 C        0.2642540000        1.1900240000        0.0000020000
 H        0.7586250000       -2.1553330000       -0.0000610000
 H       -1.7192520000       -2.1127690000        0.0000550000
 H       -2.9281680000        0.0502280000        0.0001380000
 H       -1.6381750000        2.1654540000        0.0001030000
 H        0.8263970000        2.1189220000       -0.0000130000
