14
 energy:      -212.4080594940
 C       -1.1514420000       -0.4444820000        0.1709670000
 C       -0.7721440000        1.0203030000       -0.0568600000
 C        0.7719330000        1.0204710000       -0.0567720000
 C        1.1515440000       -0.4442680000        0.1709010000
 N        0.0001010000       -1.1605250000       -0.3516050000
 H        0.0002020000       -2.1371120000       -0.0909390000
 H       -2.0650420000       -0.7355920000       -0.3513310000
 H       -1.3076950000       -0.6244280000        1.2481030000
 H       -1.1923660000        1.6683650000        0.7128560000
 H       -1.1534900000        1.3653940000       -1.0183320000
 H        1.1919100000        1.6685010000        0.7131050000
 H        1.1533240000        1.3658190000       -1.0181340000
 H        1.3079470000       -0.6242650000        1.2480040000
 H        2.0651520000       -0.7351500000       -0.3515120000
