%nproc=8
%mem=18000mb
#P PBE1PBE DEF2TZVPP OPT FREQ SCF(tight) INT(ultrafine)

 3c_2c_gn

 2 1
 C       -3.5168800000       -0.3254870000        0.0089920000
 C       -2.8724830000       -1.5354700000        0.2536370000
 C       -1.4772940000       -1.5812430000        0.2614590000
 C       -2.7479900000        0.8067190000       -0.2052970000
 N       -1.4023130000        0.7451380000       -0.1932810000
 C       -0.7391790000       -0.4269400000        0.0204330000
 C        0.7391790000       -0.4269400000       -0.0204330000
 N        1.4023130000        0.7451380000        0.1932810000
 C       -0.6077630000        1.9595990000       -0.4463900000
 C        0.6077630000        1.9595990000        0.4463900000
 H       -1.2293890000        2.8389300000       -0.2341950000
 H       -0.3320380000        1.9821650000       -1.5139280000
 H        0.3320380000        1.9821650000        1.5139280000
 H        1.2293890000        2.8389300000        0.2341950000
 C        1.4772940000       -1.5812430000       -0.2614590000
 C        2.8724830000       -1.5354700000       -0.2536370000
 C        3.5168800000       -0.3254870000       -0.0089920000
 C        2.7479900000        0.8067190000        0.2052970000
 H       -4.6062820000       -0.2446590000       -0.0054200000
 H       -3.1898880000        1.7891050000       -0.3896970000
 H        4.6062820000       -0.2446590000        0.0054200000
 H        3.1898880000        1.7891050000        0.3896970000
 H       -3.4495570000       -2.4442480000        0.4455090000
 H       -0.9668270000       -2.5203290000        0.4784270000
 H        0.9668270000       -2.5203290000       -0.4784270000
 H        3.4495570000       -2.4442480000       -0.4455090000

