%nproc=8
%mem=18000mb
#P PBE1PBE DEF2TZVPP OPT FREQ SCF(tight) INT(ultrafine)

 3e_2c_ox

 3 2
 C        3.5014730000       -0.8134810000       -0.2364490000
 C        2.7818630000       -1.9224500000       -0.6660240000
 C        1.3953350000       -1.9057610000       -0.5043170000
 C        2.8092770000        0.2627440000        0.3768660000
 N        1.4747860000        0.2966970000        0.4861100000
 C        0.7302120000       -0.7554440000        0.0080900000
 H        4.5948610000       -0.7630010000       -0.3099210000
 H        3.3615790000        1.0989940000        0.8225200000
 H        3.2828120000       -2.7921710000       -1.1067200000
 H        0.8023270000       -2.7619700000       -0.8417970000
 C       -0.7302120000       -0.7554440000       -0.0080900000
 N       -1.4747860000        0.2966970000       -0.4861100000
 C        0.8804330000        1.4452810000        1.2612300000
 C        0.6353700000        2.6890180000        0.4181700000
 H        1.6063510000        1.6515730000        2.0602150000
 H       -0.0245950000        1.0668220000        1.7591920000
 C       -0.8804330000        1.4452810000       -1.2612300000
 C       -0.6353700000        2.6890180000       -0.4181700000
 H       -1.6063510000        1.6515730000       -2.0602150000
 H        0.0245950000        1.0668220000       -1.7591920000
 H        1.5209740000        2.8867080000       -0.2101940000
 H        0.5927420000        3.5367220000        1.1214160000
 H       -1.5209740000        2.8867080000        0.2101940000
 H       -0.5927420000        3.5367220000       -1.1214160000
 C       -1.3953350000       -1.9057610000        0.5043170000
 C       -2.7818630000       -1.9224500000        0.6660240000
 C       -3.5014730000       -0.8134810000        0.2364490000
 H       -0.8023270000       -2.7619700000        0.8417970000
 H       -3.2828120000       -2.7921710000        1.1067200000
 C       -2.8092770000        0.2627440000       -0.3768660000
 H       -3.3615790000        1.0989940000       -0.8225200000
 H       -4.5948610000       -0.7630010000        0.3099210000

