%nproc=8
%mem=18000mb
#P PBE1PBE DEF2TZVPP OPT FREQ SCF(tight) INT(ultrafine)

 11-bis-2-hydroxyethyl-22-dimethyl-3p_2c_ox

 3 2
 N       -3.4926020000       -0.1908710000       -0.4778790000
 C       -2.8646280000       -1.2848490000        0.0192710000
 C       -1.5019450000       -1.3107670000        0.2236520000
 C       -0.7386550000       -0.1748390000       -0.0896810000
 C       -2.7993680000        0.9422260000       -0.7880300000
 C       -1.4150750000        0.9429080000       -0.5858090000
 C        0.7386550000       -0.1748390000        0.0896800000
 C        1.5019460000       -1.3107670000       -0.2236500000
 C        2.8646290000       -1.2848480000       -0.0192690000
 N        3.4926020000       -0.1908700000        0.4778800000
 C        2.7993680000        0.9422280000        0.7880290000
 C        1.4150750000        0.9429090000        0.5858070000
 H       -3.4945770000       -2.1477730000        0.2433140000
 H       -1.0573480000       -2.2180140000        0.6373510000
 H       -0.8719470000        1.8472050000       -0.8665170000
 H        1.0573480000       -2.2180150000       -0.6373480000
 H        3.4945780000       -2.1477730000       -0.2433100000
 H        0.8719460000        1.8472060000        0.8665140000
 C       -4.9527130000       -0.2930810000       -0.7015820000
 C       -5.7955510000       -0.0580430000        0.5389890000
 H       -5.2491800000        0.4160650000       -1.4823520000
 H       -5.1526050000       -1.3022280000       -1.0918830000
 O       -5.4941840000       -0.9874670000        1.5124750000
 H       -6.8765160000       -0.0962760000        0.2647680000
 H       -5.6749860000        0.9759610000        0.9506730000
 C        4.9527130000       -0.2930780000        0.7015820000
 C        5.7955510000       -0.0580440000       -0.5389890000
 H        5.1526060000       -1.3022240000        1.0918870000
 H        5.2491810000        0.4160700000        1.4823490000
 O        5.4941840000       -0.9874720000       -1.5124730000
 H        5.6749860000        0.9759590000       -0.9506770000
 H        6.8765160000       -0.0962760000       -0.2647680000
 C       -3.4985470000        2.1287800000       -1.3556430000
 H       -3.8974530000        1.9137810000       -2.3622380000
 H       -2.7990610000        2.9669860000       -1.4572110000
 H       -4.3331960000        2.4694490000       -0.7245440000
 C        3.4985460000        2.1287820000        1.3556400000
 H        3.8974630000        1.9137820000        2.3622310000
 H        2.7990580000        2.9669850000        1.4572180000
 H        4.3331870000        2.4694580000        0.7245340000
 H       -6.1086160000       -0.9433430000        2.2715180000
 H        6.1086140000       -0.9433470000       -2.2715180000

