%nproc=8
%mem=18000mb
#P PBE1PBE DEF2TZVPP OPT FREQ SCF(tight) INT(ultrafine)

 11-bis-2-hydroxyethyl-22-dimethyl-3p_2c_gn

 2 1
 N        3.4767390000       -0.1818650000        0.5199400000
 C        2.8636940000       -1.2787080000        0.0225460000
 C        1.5019790000       -1.3116450000       -0.1919540000
 C        0.7344680000       -0.1773260000        0.1029330000
 C        2.7781860000        0.9483570000        0.8132150000
 C        1.3992140000        0.9461680000        0.6020430000
 C       -0.7344730000       -0.1773210000       -0.1029360000
 C       -1.5019900000       -1.3116410000        0.1919320000
 C       -2.8637040000       -1.2786940000       -0.0225680000
 N       -3.4767440000       -0.1818400000       -0.5199440000
 C       -2.7781860000        0.9483860000       -0.8131930000
 C       -1.3992140000        0.9461870000       -0.6020230000
 H        3.5131760000       -2.1224340000       -0.2116340000
 H        1.0614660000       -2.2183400000       -0.6094320000
 H        0.8467180000        1.8478260000        0.8708220000
 H       -1.0614810000       -2.2183450000        0.6093960000
 H       -3.5131910000       -2.1224200000        0.2116000000
 H       -0.8467150000        1.8478480000       -0.8707820000
 C        4.9465820000       -0.2558210000        0.6740140000
 C        5.6614260000       -0.0618110000       -0.6525780000
 H        5.2712210000        0.4840250000        1.4119550000
 H        5.1737490000       -1.2535260000        1.0743700000
 O        5.1962620000       -1.0468660000       -1.5218790000
 H        6.7436840000       -0.1445650000       -0.4405660000
 H        5.4792460000        0.9608420000       -1.0380920000
 C       -4.9465860000       -0.2557880000       -0.6740200000
 C       -5.6614240000       -0.0618390000        0.6525830000
 H       -5.1737520000       -1.2534780000       -1.0744150000
 H       -5.2712280000        0.4840860000       -1.4119310000
 O       -5.1962400000       -1.0469250000        1.5218370000
 H       -5.4792530000        0.9608000000        1.0381370000
 H       -6.7436830000       -0.1445960000        0.4405750000
 C        3.4775630000        2.1444440000        1.3621940000
 H        4.2822810000        2.4906600000        0.6962270000
 H        3.9228470000        1.9319410000        2.3479300000
 H        2.7672710000        2.9694300000        1.4901050000
 C       -3.4775590000        2.1444870000       -1.3621480000
 H       -4.2822990000        2.4906740000       -0.6961940000
 H       -3.9228110000        1.9320120000       -2.3479050000
 H       -2.7672700000        2.9694830000       -1.4900110000
 H        5.6853200000       -1.0200900000       -2.3526090000
 H       -5.6852880000       -1.0201890000        2.3525740000

