%nproc=8
%mem=18000mb
#P PBE1PBE DEF2TZVPP OPT FREQ SCF(tight) INT(ultrafine)

 11-bis-2-hydroxyethyl-22-dimethyl-3p_2c_rd

 1 2
 N        3.5069030000       -0.0604690000        0.5343590000
 C        2.8141080000       -1.2348690000        0.4242640000
 C        1.4674610000       -1.2725760000        0.2214260000
 C        0.7073420000       -0.0708960000        0.1043500000
 C        2.8330200000        1.1350920000        0.4184800000
 C        1.4747160000        1.1263970000        0.2121770000
 C       -0.7073410000       -0.0708960000       -0.1043460000
 C       -1.4674620000       -1.2725750000       -0.2214200000
 C       -2.8141080000       -1.2348670000       -0.4242600000
 N       -3.5069030000       -0.0604670000       -0.5343570000
 C       -2.8330190000        1.1350940000       -0.4184790000
 C       -1.4747150000        1.1263980000       -0.2121740000
 H        3.4158050000       -2.1402190000        0.4935020000
 H        1.0016890000       -2.2545770000        0.1535480000
 H        0.9929960000        2.1000000000        0.1334160000
 H       -1.0016910000       -2.2545760000       -0.1535400000
 H       -3.4158070000       -2.1402160000       -0.4934970000
 H       -0.9929940000        2.1000010000       -0.1334130000
 C        4.9555810000       -0.1363040000        0.7092430000
 C        5.7025600000       -0.3879150000       -0.5875600000
 H        5.3158080000        0.7840090000        1.1817610000
 H        5.1651490000       -0.9620000000        1.4054730000
 O        5.3122550000       -1.6388740000       -1.0701370000
 H        6.7854130000       -0.3403090000       -0.3594970000
 H        5.4823530000        0.4253680000       -1.3072010000
 C       -4.9555800000       -0.1363020000       -0.7092460000
 C       -5.7025630000       -0.3879160000        0.5875540000
 H       -5.1651450000       -0.9619960000       -1.4054790000
 H       -5.3158060000        0.7840120000       -1.1817620000
 O       -5.3122580000       -1.6388760000        1.0701290000
 H       -5.4823590000        0.4253650000        1.3071970000
 H       -6.7854150000       -0.3403110000        0.3594880000
 C        3.5971590000        2.4143090000        0.5353700000
 H        4.4045170000        2.4850750000       -0.2097880000
 H        4.0518470000        2.5291210000        1.5326760000
 H        2.9229080000        3.2646400000        0.3792050000
 C       -3.5971560000        2.4143120000       -0.5353690000
 H       -4.4045160000        2.4850770000        0.2097870000
 H       -4.0518420000        2.5291250000       -1.5326760000
 H       -2.9229060000        3.2646420000       -0.3792020000
 H        5.7183250000       -1.7962990000       -1.9284690000
 H       -5.7183290000       -1.7963030000        1.9284600000

