%nproc=8
%mem=18000mb
#P PBE1PBE DEF2TZVPP OPT FREQ SCF(tight) INT(ultrafine)

 11-bis-2-chloroethyl-3l_2c_gn

 2 1
 N       -3.5000830000       -0.8196490000       -0.0567870000
 C       -2.7252110000       -1.2883550000       -1.0557000000
 C       -1.3469280000       -1.2593040000       -0.9623110000
 C       -2.9449900000       -0.3009110000        1.0559910000
 C       -1.5686890000       -0.2393250000        1.2000740000
 C       -0.7368600000       -0.7223550000        0.1825660000
 C        0.7406150000       -0.6697170000        0.3114580000
 C        1.5477460000       -1.7283340000       -0.1347000000
 C        1.3752980000        0.4381790000        0.8863500000
 C        2.7559760000        0.4652300000        0.9941860000
 C        2.9202210000       -1.6511900000        0.0059730000
 N        3.5025990000       -0.5701740000        0.5629080000
 H        3.2921390000        1.3117560000        1.4256570000
 H        0.8138760000        1.3066350000        1.2360540000
 H        1.1215560000       -2.6357060000       -0.5667550000
 H        3.5835930000       -2.4570870000       -0.3157160000
 H       -1.1657520000        0.1653810000        2.1303520000
 H       -3.6297780000        0.0548170000        1.8271200000
 H       -3.2399860000       -1.6878990000       -1.9322750000
 H       -0.7626970000       -1.6377210000       -1.8031740000
 C       -4.9697980000       -0.7931730000       -0.2112980000
 C       -5.4597070000        0.5062220000       -0.8297470000
 H       -5.4102040000       -0.9451020000        0.7834610000
 H       -5.2582880000       -1.6452260000       -0.8433680000
Cl       -5.0092820000        1.9139440000        0.1512370000
 H       -6.5565250000        0.4655540000       -0.8941470000
 H       -5.0609200000        0.6535610000       -1.8438240000
 C        4.9761990000       -0.4752700000        0.6281580000
 C        5.5657870000        0.1811610000       -0.6097010000
 H        5.3752260000       -1.4932890000        0.7429970000
 H        5.2317360000        0.0925670000        1.5330370000
Cl        4.9421300000        1.8250540000       -0.8445770000
 H        5.3556250000       -0.3984580000       -1.5201790000
 H        6.6564160000        0.2388750000       -0.4831020000

