%nproc=8
%mem=18000mb
#P PBE1PBE DEF2TZVPP OPT FREQ SCF(tight) INT(ultrafine)

 11-bis-2-chloroethyl-3l_2c_rd

 1 2
 N       -3.4160500000        0.7815240000       -0.5477380000
 C       -2.8736260000       -0.3593560000       -1.0640350000
 C       -1.5604120000       -0.6803960000       -0.8717670000
 C       -2.6203090000        1.6128320000        0.1875300000
 C       -1.3030620000        1.3371960000        0.4117290000
 C       -0.6885440000        0.1566240000       -0.1100600000
 C        0.6885440000       -0.1566250000        0.1100590000
 C        1.3030630000       -1.3371950000       -0.4117310000
 C        1.5604110000        0.6803950000        0.8717670000
 C        2.8736260000        0.3593540000        1.0640350000
 C        2.6203090000       -1.6128320000       -0.1875320000
 N        3.4160500000       -0.7815240000        0.5477370000
 H        3.5502630000        0.9970990000        1.6328310000
 H        1.2078200000        1.6052310000        1.3262030000
 H        0.7388990000       -2.0596590000       -1.0000460000
 H        3.0957820000       -2.5144050000       -0.5775030000
 H       -0.7388980000        2.0596610000        1.0000420000
 H       -3.0957810000        2.5144070000        0.5774990000
 H       -3.5502640000       -0.9971020000       -1.6328290000
 H       -1.2078210000       -1.6052330000       -1.3262010000
 C       -4.8363470000        1.0684800000       -0.7068520000
 C       -5.6972410000        0.5248900000        0.4192780000
 H       -5.1657990000        0.6544530000       -1.6703400000
 H       -4.9627100000        2.1608240000       -0.7600270000
Cl       -5.6388110000       -1.2509570000        0.5021310000
 H       -6.7422450000        0.8213750000        0.2531450000
 H       -5.3761790000        0.9149550000        1.3956840000
 C        4.8363470000       -1.0684810000        0.7068510000
 C        5.6972410000       -0.5248890000       -0.4192780000
 H        4.9627100000       -2.1608250000        0.7600240000
 H        5.1657990000       -0.6544550000        1.6703400000
Cl        5.6388110000        1.2509580000       -0.5021280000
 H        5.3761800000       -0.9149520000       -1.3956840000
 H        6.7422450000       -0.8213740000       -0.2531440000

