%nproc=8
%mem=18000mb
#P PBE1PBE DEF2TZVPP OPT FREQ SCF(tight) INT(ultrafine)

 10-acetyl-7b_n_gn

 0 1
 C        3.3873590000       -0.0526530000        1.2256810000
 C        3.5088840000       -1.3129800000        0.6407350000
 C        2.2204470000        0.6871790000        1.0520690000
 C        1.1839660000        0.1955290000        0.2542650000
 C        1.2921030000       -1.0926850000       -0.2922320000
 C        2.4540590000       -1.8426640000       -0.0979000000
 H        4.1986810000        0.3516700000        1.8349490000
 H        2.1068810000        1.6617010000        1.5306240000
 H        4.4192510000       -1.8998450000        0.7821620000
 H        2.5205140000       -2.8469850000       -0.5227110000
 N        0.0048060000        0.9470300000        0.0166290000
 C       -1.2305900000        0.2727150000        0.2301900000
 C       -1.3829440000       -1.0142750000       -0.3044400000
 S       -0.0576300000       -1.7407770000       -1.2276250000
 C       -2.2815850000        0.8498490000        0.9451990000
 C       -3.4827650000        0.1608870000        1.0919360000
 C       -3.6357140000       -1.1149500000        0.5503140000
 C       -2.5813580000       -1.7104560000       -0.1363330000
 H       -2.1595670000        1.8517980000        1.3542030000
 H       -4.3059430000        0.6269210000        1.6380280000
 H       -2.6789510000       -2.7189660000       -0.5447460000
 H       -4.5766560000       -1.6563300000        0.6723140000
 C        0.0012320000        2.2279260000       -0.5420020000
 C        1.3184170000        2.7698920000       -1.0453230000
 H        1.8577050000        3.2917210000       -0.2408290000
 H        1.0753320000        3.5101550000       -1.8173570000
 H        1.9816070000        1.9960500000       -1.4530760000
 O       -1.0224370000        2.8644330000       -0.6426140000

