%nproc=8
%mem=18000mb
#P PBE1PBE DEF2TZVPP OPT FREQ SCF(tight) INT(ultrafine)

 10-acetyl-7b_n_rd

-1 2
 C        3.2580100000       -0.1313620000        1.3507760000
 C        3.4363280000       -1.3878320000        0.7376130000
 C        2.1347590000        0.6417780000        1.1115160000
 C        1.1456060000        0.2015870000        0.1777670000
 C        1.2907750000       -1.1056510000       -0.3617390000
 C        2.3913880000       -1.8924110000       -0.0806670000
 H        4.0175370000        0.2414440000        2.0469500000
 H        1.9942280000        1.5941470000        1.6289020000
 H        4.3360400000       -1.9801690000        0.9190410000
 H        2.4338650000       -2.9107170000       -0.4786630000
 N       -0.0063130000        0.9651210000       -0.1445980000
 C       -1.2233030000        0.2989400000        0.1321630000
 C       -1.3766830000       -1.0200960000       -0.3526510000
 S       -0.0706530000       -1.7002000000       -1.3401530000
 C       -2.2701090000        0.8693810000        0.8813410000
 C       -3.4317320000        0.1423190000        1.1229130000
 C       -3.5767280000       -1.1654520000        0.6501860000
 C       -2.5286610000       -1.7501680000       -0.0750390000
 H       -2.1694370000        1.9039770000        1.2066760000
 H       -4.2449480000        0.6100520000        1.6867900000
 H       -2.6021770000       -2.7794450000       -0.4363960000
 H       -4.4928030000       -1.7300080000        0.8432540000
 C        0.0457390000        2.2899920000       -0.5377020000
 C        1.3951650000        2.7608680000       -1.0208700000
 H        2.0929590000        3.0105270000       -0.2002440000
 H        1.2246530000        3.6667570000       -1.6189080000
 H        1.8965570000        1.9838100000       -1.6195470000
 O       -0.9318950000        3.0407010000       -0.4921080000

