%nproc=8
%mem=18000mb
#P PBE1PBE DEF2TZVPP OPT FREQ SCF(tight) INT(ultrafine)

 11-bicyanomethyl-3l_2c_rd

 1 2
 N       -3.5412640000        0.0028820000       -0.4316890000
 C       -2.8494400000       -1.1753070000       -0.4353380000
 C       -1.4854410000       -1.2009800000       -0.4457090000
 C       -2.8494180000        1.1810090000       -0.4210950000
 C       -1.4854150000        1.2067780000       -0.4311600000
 C       -0.7150380000        0.0029090000       -0.4413940000
 C        0.7150300000        0.0028920000       -0.4413870000
 C        1.4854040000       -1.2010160000       -0.4455980000
 C        1.4854370000        1.2067430000       -0.4312400000
 C        2.8494390000        1.1809420000       -0.4211770000
 C        2.8494040000       -1.1753750000       -0.4352230000
 N        3.5412560000        0.0027970000       -0.4316770000
 H        3.4470440000        2.0937710000       -0.4032950000
 H        1.0114180000        2.1873480000       -0.4286750000
 H        1.0113570000       -2.1815690000       -0.4547020000
 H        3.4469880000       -2.0883680000       -0.4282050000
 H       -1.0113720000        2.1873710000       -0.4285020000
 H       -3.4470010000        2.0938510000       -0.4031340000
 H       -3.4470470000       -2.0882850000       -0.4284150000
 H       -1.0114190000       -2.1815440000       -0.4549220000
 C       -4.9964650000        0.0022560000       -0.3320120000
 C        4.9964580000        0.0021470000       -0.3320240000
 C       -5.4552050000       -0.0069760000        1.0585220000
 H       -5.3952860000       -0.8782010000       -0.8578590000
 H       -5.3952150000        0.8896570000       -0.8460980000
 N       -5.8007990000       -0.0143460000        2.1613960000
 C        5.4552230000       -0.0069180000        1.0585030000
 H        5.3952470000       -0.8783870000       -0.8577660000
 H        5.3952230000        0.8894720000       -0.8462320000
 N        5.8008400000       -0.0141540000        2.1613700000

