%nproc=8
%mem=18000mb
#P PBE1PBE DEF2TZVPP OPT FREQ SCF(tight) INT(ultrafine)

 2-chloro-7-methoxy-7a_n_rd

-1 2
 C       -3.4360640000       -1.3732160000       -0.0837180000
 C       -3.7590540000       -0.0104120000        0.1096360000
 C       -2.0871710000       -1.7248650000       -0.2381010000
 C       -1.0580130000       -0.7872520000       -0.2202690000
 C       -1.4011450000        0.6005830000       -0.0683190000
 C       -2.7534030000        0.9460670000        0.1156340000
 H       -4.1991410000       -2.1509510000       -0.1121930000
 H       -1.8285940000       -2.7834480000       -0.3657850000
 H       -3.0326290000        1.9938460000        0.2598540000
 N        0.2639760000       -1.1804420000       -0.3358130000
 C        1.3940670000       -0.4023350000       -0.1579470000
 C        1.2925360000        1.0306470000       -0.0270900000
 S       -0.2075860000        1.8395900000       -0.4596150000
 C        2.6635120000       -0.9909550000       -0.0963020000
 C        3.7994860000       -0.2215860000        0.1378040000
 C        3.7118880000        1.1787810000        0.3232330000
 C        2.4529880000        1.7662030000        0.2301580000
 H        2.3584070000        2.8516010000        0.3473590000
 H        4.6020730000        1.7671620000        0.5490990000
 H        0.4212150000       -2.1754430000       -0.4071440000
 H        2.7663630000       -2.0741390000       -0.2177920000
Cl        5.3692310000       -1.0041440000        0.1981910000
 O       -5.0434450000        0.4460710000        0.3191430000
 C       -6.0614800000       -0.4901060000        0.3901390000
 H       -6.1885860000       -1.0576390000       -0.5537600000
 H       -6.9952660000        0.0580580000        0.5894150000
 H       -5.9085490000       -1.2268310000        1.2039490000

