%nproc=8
%mem=18000mb
#P PBE1PBE DEF2TZVPP OPT FREQ SCF(tight) INT(ultrafine)

 2-chloro-7-methoxy-7a_n_gn

 0 1
 C       -3.3424140000       -1.3810580000       -0.0220560000
 C       -3.6879840000       -0.0472440000        0.2019100000
 C       -2.0208930000       -1.7109850000       -0.3332330000
 C       -1.0346360000       -0.7358180000       -0.4638630000
 C       -1.3956600000        0.6072910000       -0.2471230000
 C       -2.6976550000        0.9404490000        0.0996940000
 H       -4.0821440000       -2.1779810000        0.0533490000
 H       -1.7567270000       -2.7612830000       -0.4869390000
 H       -2.9761220000        1.9800540000        0.2827450000
 N        0.2792490000       -1.0763530000       -0.7951460000
 C        1.3828480000       -0.3494630000       -0.3807330000
 C        1.2790050000        1.0348540000       -0.1424710000
 S       -0.2170190000        1.8962110000       -0.5278070000
 C        2.6181170000       -0.9787550000       -0.1880900000
 C        3.7266000000       -0.2367100000        0.2136450000
 C        3.6281690000        1.1278090000        0.4685060000
 C        2.3911000000        1.7480680000        0.2982630000
 H        2.2904640000        2.8181750000        0.4955150000
 H        4.5019770000        1.6924710000        0.7945200000
 H        0.4418500000       -2.0646880000       -0.9345300000
 H        2.7203620000       -2.0526900000       -0.3579760000
Cl        5.2470190000       -1.0438340000        0.4172500000
 O       -4.9268050000        0.3862360000        0.5197610000
 C       -5.9562610000       -0.5525440000        0.6414720000
 H       -6.1324320000       -1.0970620000       -0.3037970000
 H       -6.8646270000        0.0062690000        0.9009160000
 H       -5.7519320000       -1.2882390000        1.4402700000

