%nproc=8
%mem=18000mb
#P PBE1PBE DEF2TZVPP OPT FREQ SCF(tight) INT(ultrafine)

 23-dimethyl-14-nq_n_rd

-1 2
 C        3.2602290000        0.7046380000       -0.0000000000
 C        3.2602290000       -0.7046380000        0.0000000000
 C        2.0597950000        1.3936570000       -0.0000000000
 C        0.8295230000        0.7085730000       -0.0000000000
 C        0.8295230000       -0.7085730000       -0.0000000000
 C        2.0597950000       -1.3936570000       -0.0000000000
 C       -0.4238070000        1.4747600000       -0.0000000000
 C       -1.6460970000        0.6956170000        0.0000000000
 C       -1.6460970000       -0.6956170000       -0.0000000000
 C       -0.4238070000       -1.4747600000       -0.0000000000
 H        4.2085800000        1.2515160000       -0.0000000000
 H        4.2085800000       -1.2515160000        0.0000000000
 H        2.0133450000        2.4856940000       -0.0000000000
 H        2.0133450000       -2.4856940000       -0.0000000000
 O       -0.4156000000        2.7284070000        0.0000000000
 O       -0.4156000000       -2.7284070000       -0.0000000000
 C       -2.9300060000        1.4712540000        0.0000000000
 H       -2.6911020000        2.5438330000        0.0000010000
 H       -3.5519190000        1.2432480000        0.8840660000
 H       -3.5519180000        1.2432500000       -0.8840670000
 C       -2.9300060000       -1.4712540000        0.0000000000
 H       -3.5519200000       -1.2432470000       -0.8840650000
 H       -3.5519170000       -1.2432510000        0.8840680000
 H       -2.6911020000       -2.5438330000       -0.0000020000

