%nproc=8
%mem=18000mb
#P PBE1PBE DEF2TZVPP OPT FREQ SCF(tight) INT(ultrafine)

 23-dimethyl-14-nq_n_ox

 1 2
 C       -3.2553950000       -0.7007500000        0.0212790000
 C       -3.2553960000        0.7007440000       -0.0212570000
 C       -2.0554340000       -1.4061360000        0.0374050000
 C       -0.8477640000       -0.7029660000        0.0345510000
 C       -0.8477660000        0.7029620000       -0.0345750000
 C       -2.0554360000        1.4061310000       -0.0374060000
 C        0.4173870000       -1.4670970000        0.1050700000
 C        1.7083890000       -0.6837430000       -0.0810120000
 C        1.7083840000        0.6837460000        0.0810050000
 C        0.4173830000        1.4670930000       -0.1051180000
 H       -4.2027670000       -1.2440720000        0.0536290000
 H       -4.2027700000        1.2440640000       -0.0535890000
 H       -2.0337720000       -2.4971010000        0.0814210000
 H       -2.0337760000        2.4970960000       -0.0814220000
 O        0.4737900000       -2.6604770000        0.2468090000
 O        0.4737810000        2.6604800000       -0.2467990000
 C        2.8699120000       -1.5129880000       -0.4380710000
 H        2.8493690000       -2.4212150000        0.1933750000
 H        3.8262680000       -0.9832420000       -0.3776380000
 H        2.7481880000       -1.8971370000       -1.4687400000
 C        2.8698930000        1.5129970000        0.4380950000
 H        3.8262530000        0.9832570000        0.3776880000
 H        2.7481380000        1.8971460000        1.4687610000
 H        2.8493620000        2.4212240000       -0.1933520000

