%nproc=8
%mem=18000mb
#P PBE1PBE DEF2TZVPP OPT FREQ SCF(tight) INT(ultrafine)

 3-nitro-7a_n_rd

-1 2
 C        4.6665790000        0.6548450000       -0.4142550000
 C        4.6177240000       -0.7373080000       -0.5103790000
 C        3.5157690000        1.3780930000       -0.1171260000
 C        2.2849680000        0.7361510000        0.1158430000
 C        2.2467240000       -0.6817840000        0.0475490000
 C        3.4015300000       -1.3876250000       -0.2844210000
 H        5.6054960000        1.1885310000       -0.5857690000
 H        3.5551310000        2.4709120000       -0.0608490000
 H        5.5111550000       -1.3141130000       -0.7599690000
 H        3.3412940000       -2.4780010000       -0.3494510000
 N        1.1558240000        1.4571170000        0.4010750000
 C       -0.1650320000        1.0051940000        0.2654280000
 C       -0.4718720000       -0.3751680000        0.2289920000
 S        0.8024220000       -1.5729790000        0.5391540000
 C       -1.2265980000        1.9209750000        0.1367770000
 C       -2.5355100000        1.5035300000       -0.0187680000
 C       -2.8296920000        0.1173720000       -0.0721600000
 C       -1.7690370000       -0.8153140000        0.0527860000
 H       -1.0006930000        2.9937330000        0.1599340000
 H       -3.3650670000        2.2028400000       -0.1147390000
 H       -2.0218070000       -1.8753780000        0.0206690000
 H        1.2645080000        2.4616990000        0.3911710000
 N       -4.1379370000       -0.3278580000       -0.2423090000
 O       -5.0536660000        0.5252620000       -0.3365910000
 O       -4.3547470000       -1.5629040000       -0.2909610000

