%nproc=8
%mem=18000mb
#P PBE1PBE DEF2TZVPP OPT FREQ SCF(tight) INT(ultrafine)

 3-nitro-7a_n_ox

 1 2
 C        2.4842220000       -4.0368850000        0.0000000000
 C        3.5476110000       -3.1137850000        0.0000000000
 C        1.1754280000       -3.5994700000        0.0000000000
 C        0.8905880000       -2.2201180000        0.0000000000
 C        1.9646540000       -1.2912030000        0.0000000000
 C        3.2905320000       -1.7553130000        0.0000000000
 H        2.6940300000       -5.1085090000        0.0000000000
 H        0.3509290000       -4.3171750000        0.0000000000
 H        4.5798500000       -3.4693710000        0.0000000000
 H        4.1132580000       -1.0360280000        0.0000000000
 N       -0.4130840000       -1.8027620000        0.0000000000
 C       -0.8844790000       -0.5198400000        0.0000000000
 C       -0.0000000000        0.5897110000        0.0000000000
 S        1.7255400000        0.4229740000        0.0000000000
 C       -2.2769430000       -0.2947660000        0.0000000000
 C       -2.7779300000        0.9893140000        0.0000000000
 C       -1.8826390000        2.0670510000        0.0000000000
 C       -0.5149930000        1.8935320000        0.0000000000
 H       -2.9587050000       -1.1490550000        0.0000000000
 H       -3.8502950000        1.1911400000        0.0000000000
 H        0.1321460000        2.7738180000        0.0000000000
 H       -1.1161570000       -2.5376320000        0.0000000000
 N       -2.4184370000        3.4447440000        0.0000000000
 O       -3.6194040000        3.5532530000        0.0000000000
 O       -1.6092670000        4.3394960000        0.0000000000

