%nproc=8
%mem=18000mb
#P PBE1PBE DEF2TZVPP OPT FREQ SCF(tight) INT(ultrafine)

 28-dimethyl-2-8-phenanthrolinium_2c_rd

 1 2
 C        0.9472020000       -3.5023160000        0.0000000000
 C       -0.3785610000       -3.1108070000        0.0000000000
 C       -0.7178000000       -1.7450870000        0.0000000000
 C        0.3344760000       -0.7739180000        0.0000000000
 N        1.9345580000       -2.5942250000        0.0000000000
 C        1.6629720000       -1.2570330000        0.0000000000
 C       -2.0835150000       -1.3154140000        0.0000000000
 C       -2.4072780000        0.0091560000        0.0000000000
 C       -1.3867340000        1.0067150000        0.0000000000
 C        0.0000000000        0.6089000000        0.0000000000
 H        1.2454020000       -4.5514790000        0.0000000000
 H       -1.1570840000       -3.8743040000        0.0000000000
 H        2.5322440000       -0.6028610000        0.0000000000
 H       -2.8672900000       -2.0756830000        0.0000000000
 H       -3.4553670000        0.3191460000        0.0000000000
 C       -1.7178940000        2.3513840000        0.0000000000
 N       -0.7800670000        3.3219210000        0.0000000000
 C        0.9543530000        1.6740150000        0.0000000000
 C        0.5590840000        2.9740720000        0.0000000000
 H        2.0265700000        1.4767150000        0.0000000000
 H        1.2647560000        3.8052390000        0.0000000000
 H       -2.7596670000        2.6777040000        0.0000000000
 C        3.3314550000       -3.0142730000        0.0000000000
 H        3.3859150000       -4.1083940000        0.0000000000
 H        3.8377220000       -2.6292110000        0.8965010000
 H        3.8377220000       -2.6292110000       -0.8965010000
 C       -1.1410130000        4.7302910000        0.0000000000
 H       -2.2325030000        4.8301920000        0.0000000000
 H       -0.7401730000        5.2270790000       -0.8959860000
 H       -0.7401730000        5.2270790000        0.8959860000

