%nproc=8
%mem=18000mb
#P PBE1PBE DEF2TZVPP OPT FREQ SCF(tight) INT(ultrafine)

 28-dimethyl-2-8-phenanthrolinium_2c_gn

 2 1
 C       -3.5951430000        0.4034780000       -0.0000210000
 C       -2.7624340000        1.4899110000        0.0000030000
 C       -1.3601380000        1.3120830000        0.0000090000
 C       -0.8521870000       -0.0188730000       -0.0000070000
 N       -3.0892300000       -0.8627850000       -0.0000350000
 C       -1.7724970000       -1.0753490000       -0.0000290000
 C       -0.4672240000        2.4291000000        0.0000270000
 C        0.8799600000        2.2350710000        0.0000300000
 C        1.4268190000        0.9089340000        0.0000150000
 C        0.5823520000       -0.2337390000       -0.0000040000
 H       -4.6837080000        0.4906940000       -0.0000300000
 H       -3.1955640000        2.4924250000        0.0000110000
 H       -1.4646940000       -2.1215200000       -0.0000450000
 H       -0.8820140000        3.4395270000        0.0000370000
 H        1.5593410000        3.0912460000        0.0000430000
 C        2.8184180000        0.7220720000        0.0000190000
 N        3.3615710000       -0.4937770000        0.0000050000
 C        1.2046540000       -1.4999310000       -0.0000180000
 C        2.5731680000       -1.6030380000       -0.0000130000
 H        0.6358570000       -2.4301790000       -0.0000320000
 H        3.0892460000       -2.5651120000       -0.0000230000
 H        3.5050510000        1.5718970000        0.0000330000
 C       -4.0353510000       -1.9911520000        0.0000070000
 H       -4.6649810000       -1.9346740000       -0.8984650000
 H       -4.6643000000       -1.9351820000        0.8989920000
 H       -3.4808760000       -2.9355890000       -0.0004820000
 C        4.8244600000       -0.6676180000        0.0000070000
 H        5.3083330000        0.3148930000        0.0000370000
 H        5.1213910000       -1.2240670000       -0.8993590000
 H        5.1213830000       -1.2241170000        0.8993460000

