%nproc=8
%mem=18000mb
#P PBE1PBE DEF2TZVPP OPT FREQ SCF(tight) INT(ultrafine)

 3aa_2c_gn

 2 1
 C        2.4980880000        5.1298190000        0.0000000000
 C        1.1824300000        4.7713790000        0.0000000000
 N        0.8053080000        3.4439600000        0.0000000000
 C        1.7657760000        2.4414230000        0.0000000000
 C        3.5013430000        4.1333170000        0.0000000000
 C        3.1301060000        2.8117920000        0.0000000000
 C       -0.5229790000        3.1207740000        0.0000000000
 C       -0.9640630000        1.8165070000        0.0000000000
 C       -0.0000000000        0.7501200000        0.0000000000
 C        1.3364290000        1.0990740000        0.0000000000
 C       -2.3802340000        1.5321420000        0.0000000000
 C       -2.8337170000        0.2578000000        0.0000000000
 C       -1.9205760000       -0.8573580000       -0.0000000000
 C       -0.5000020000       -0.6291780000       -0.0000000000
 C       -2.3761310000       -2.1648120000       -0.0000000000
 C        0.3360440000       -1.7200750000       -0.0000000000
 N       -0.1314290000       -3.0071560000       -0.0000000000
 C       -1.4984570000       -3.2605940000       -0.0000000000
 C       -1.9399000000       -4.6050390000       -0.0000000000
 C       -1.0408590000       -5.6405660000       -0.0000000000
 C        0.7687630000       -4.0551430000       -0.0000000000
 C        0.3447120000       -5.3497720000       -0.0000000000
 H        2.7552100000        6.1909830000        0.0000000000
 H        0.3659470000        5.4947660000        0.0000000000
 H        4.5565670000        4.4149450000        0.0000000000
 H        3.8767940000        2.0158030000        0.0000000000
 H       -3.0837680000        2.3678630000        0.0000000000
 H       -3.9064240000        0.0528340000        0.0000000000
 H       -1.2162610000        3.9633650000        0.0000000000
 H        2.1291490000        0.3504810000        0.0000000000
 H        1.4223420000       -1.6370650000       -0.0000000000
 H       -3.4474430000       -2.3746570000       -0.0000000000
 H       -3.0161860000       -4.7867670000       -0.0000000000
 H       -1.3854250000       -6.6770250000       -0.0000000000
 H        1.8225610000       -3.7744020000       -0.0000000000
 H        1.0891510000       -6.1484000000       -0.0000000000

