%nproc=8
%mem=18000mb
#P PBE1PBE DEF2TZVPP OPT FREQ SCF(tight) INT(ultrafine)

 6-methyl-3b_2c_ox

 3 2
 C       -3.0417880000       -2.1133400000        0.0000000000
 C       -3.4160220000       -0.7604580000        0.0000000000
 C       -1.7064320000       -2.4261040000        0.0000000000
 C       -2.4291940000        0.2472930000        0.0000000000
 C       -1.0799270000       -0.0762950000        0.0000000000
 N       -0.7400260000       -1.4242590000        0.0000000000
 C       -0.0000000000        0.9117440000        0.0000000000
 N        1.3335000000        0.4797430000        0.0000000000
 C        0.5658510000       -1.7945790000        0.0000000000
 C        1.6378110000       -0.8739640000        0.0000000000
 C       -0.2482840000        2.2763060000        0.0000000000
 C        0.8016940000        3.2075180000        0.0000000000
 C        2.3661120000        1.3996380000        0.0000000000
 C        2.1282600000        2.7518160000        0.0000000000
 H       -3.7858020000       -2.9179390000        0.0000000000
 H       -1.3318310000       -3.4551430000        0.0000000000
 H       -4.4760360000       -0.4772390000        0.0000000000
 H       -2.7535910000        1.2894520000        0.0000000000
 H        0.7836590000       -2.8680510000        0.0000000000
 H       -1.2733150000        2.6500610000        0.0000000000
 H        0.5790420000        4.2815160000        0.0000000000
 H        3.3805380000        0.9991590000        0.0000000000
 H        2.9760690000        3.4457150000        0.0000000000
 C        3.0135690000       -1.3822720000        0.0000000000
 H        3.0356030000       -2.4799490000        0.0000000000
 H        3.5807250000       -1.0298920000        0.8879230000
 H        3.5807250000       -1.0298920000       -0.8879230000

