%nproc=8
%mem=18000mb
#P PBE1PBE DEF2TZVPP OPT FREQ SCF(tight) INT(ultrafine)

 6-methyl-3b_2c_rd

 1 2
 C       -3.0648520000       -2.0342670000        0.0000000000
 C       -3.4129250000       -0.6542480000        0.0000000000
 C       -1.7452450000       -2.3694330000        0.0000000000
 C       -2.4354440000        0.3005710000        0.0000000000
 C       -1.0533550000       -0.0519710000        0.0000000000
 N       -0.7624370000       -1.4177480000        0.0000000000
 C        0.0000000000        0.8794980000        0.0000000000
 N        1.3379380000        0.4427050000        0.0000000000
 C        0.5771680000       -1.8113110000        0.0000000000
 C        1.6040530000       -0.9448050000        0.0000000000
 C       -0.2176330000        2.2890620000        0.0000000000
 C        0.8189810000        3.1762310000        0.0000000000
 C        2.3688840000        1.3478460000        0.0000000000
 C        2.1577430000        2.6919660000        0.0000000000
 H       -3.8225240000       -2.8175680000        0.0000000000
 H       -1.3942850000       -3.4023640000        0.0000000000
 H       -4.4630050000       -0.3558840000        0.0000000000
 H       -2.7133060000        1.3525730000        0.0000000000
 H        0.7548280000       -2.8853670000        0.0000000000
 H       -1.2406770000        2.6597620000        0.0000000000
 H        0.6211680000        4.2495710000        0.0000000000
 H        3.3712390000        0.9267720000        0.0000000000
 H        3.0124160000        3.3682060000        0.0000000000
 C        3.0164320000       -1.4198190000        0.0000000000
 H        3.0375900000       -2.5161110000        0.0000000000
 H        3.5626020000       -1.0751040000        0.8924060000
 H        3.5626020000       -1.0751040000       -0.8924060000

