%nproc=8
%mem=18000mb
#P PBE1PBE DEF2TZVPP OPT FREQ SCF(tight) INT(ultrafine)

 11-bis-12-dichloroethyl-3l_2c_gn

 2 1
 N       -3.5081570000       -0.2299910000        0.1918180000
 C       -2.8238380000        0.8802810000        0.5449090000
 C       -1.4433380000        0.9089040000        0.4683020000
 C       -2.8614870000       -1.3423010000       -0.2254890000
 C       -1.4837970000       -1.3660770000       -0.3074600000
 C       -0.7404370000       -0.2258680000        0.0386940000
 C        0.7404360000       -0.2258680000       -0.0386950000
 C        1.4433380000        0.9089040000       -0.4683030000
 C        2.8238380000        0.8802820000       -0.5449100000
 N        3.5081570000       -0.2299910000       -0.1918180000
 C        1.4837970000       -1.3660760000        0.3074600000
 C        2.8614870000       -1.3423000000        0.2254890000
 H       -3.4868880000       -2.1994780000       -0.4849000000
 H       -3.4125110000        1.7259910000        0.9044550000
 H       -0.9299710000        1.8170920000        0.7899600000
 H       -1.0060790000       -2.2766700000       -0.6740670000
 H        3.4868880000       -2.1994770000        0.4849000000
 H        1.0060800000       -2.2766690000        0.6740680000
 H        0.9299710000        1.8170910000       -0.7899620000
 H        3.4125110000        1.7259910000       -0.9044580000
 C       -4.9511540000       -0.2393450000        0.2697220000
 C       -5.7134710000        0.6445600000       -0.3933000000
 C        4.9511540000       -0.2393440000       -0.2697220000
 C        5.7134710000        0.6445600000        0.3933000000
Cl       -5.1207170000        1.8637490000       -1.4162050000
Cl       -5.5958510000       -1.4875690000        1.2380840000
Cl        5.1207180000        1.8637490000        1.4162070000
Cl        5.5958500000       -1.4875690000       -1.2380830000
 H       -6.8017720000        0.5870030000       -0.2996540000
 H        6.8017720000        0.5870020000        0.2996550000

