%nproc=8
%mem=18000mb
#P PBE1PBE DEF2TZVPP OPT FREQ SCF(tight) INT(ultrafine)

 11-bis-12-dichloroethyl-3l_2c_ox

 3 2
 N        3.5235220000       -0.2862670000        0.0393050000
 C        2.8797090000        0.2542840000       -1.0283980000
 C        1.4989850000        0.2948530000       -1.0700870000
 C        2.8198950000       -0.8105700000        1.0781520000
 C        1.4400050000       -0.7977430000        1.0716180000
 C        0.7401970000       -0.2406240000       -0.0145010000
 C       -0.7448230000       -0.2365150000       -0.0515580000
 C       -1.4597210000        0.8291030000       -0.6255130000
 C       -2.8413650000        0.8048310000       -0.6586440000
 N       -3.5254380000       -0.2494500000       -0.1432650000
 C       -1.4864560000       -1.3092520000        0.4755880000
 C       -2.8653610000       -1.3010970000        0.4095900000
 H        3.3973380000       -1.2298500000        1.9063460000
 H        3.4961820000        0.6131140000       -1.8555040000
 H        1.0337010000        0.7059450000       -1.9689700000
 H        0.9271860000       -1.2063020000        1.9454320000
 H       -3.4750850000       -2.1247860000        0.7904700000
 H       -1.0074120000       -2.1854400000        0.9187500000
 H       -0.9594680000        1.7031220000       -1.0488520000
 H       -3.4266240000        1.6040650000       -1.1190720000
 C        4.9615880000       -0.3493700000        0.0596130000
 C        5.7737090000        0.7452100000       -0.1190260000
 C       -4.9635760000       -0.2803490000       -0.2188610000
 C       -5.7694670000        0.7103530000        0.2899480000
Cl        5.2500890000        2.3118680000       -0.3331500000
Cl        5.6283510000       -1.8600120000        0.3674080000
Cl       -5.2362670000        2.0590290000        1.1088570000
Cl       -5.6349050000       -1.6408380000       -0.9384310000
 H        6.8610000000        0.5963060000       -0.0903010000
 H       -6.8568790000        0.6043800000        0.1822820000

