%nproc=8
%mem=18000mb
#P PBE1PBE DEF2TZVPP OPT FREQ SCF(tight) INT(ultrafine)

 112-trimethyl-3p_2c_rd

 1 2
 N       -3.8312810000        0.1101290000       -0.0207910000
 C       -3.2297010000       -1.1152330000       -0.0138200000
 C       -1.8715930000       -1.2520600000       -0.0095710000
 C       -3.0431830000        1.2241520000       -0.0166910000
 C       -1.6803950000        1.1443390000       -0.0125320000
 C       -1.0045820000       -0.1154660000       -0.0075390000
 H       -3.5658670000        2.1818130000       -0.0200960000
 H       -1.1307670000        2.0847320000       -0.0168270000
 H       -3.8976480000       -1.9778870000       -0.0148760000
 H       -1.4775510000       -2.2675960000       -0.0111490000
 C        0.4202950000       -0.2316110000       -0.0034670000
 C        1.0909700000       -1.4908160000       -0.0008790000
 C        2.4522050000       -1.5593330000        0.0028090000
 C        1.2868000000        0.9003490000       -0.0018440000
 C        2.6575490000        0.7986100000        0.0019490000
 N        3.2437820000       -0.4468030000        0.0042900000
 H        0.8789260000        1.9102430000       -0.0033310000
 H        0.5453630000       -2.4333780000       -0.0017540000
 H        2.9766710000       -2.5155960000        0.0047760000
 C        4.6916740000       -0.5953130000        0.0083410000
 H        5.1312110000       -0.1336770000        0.9038200000
 H        5.1361080000       -0.1345710000       -0.8851770000
 H        4.9404380000       -1.6622760000        0.0095480000
 C       -5.2798460000        0.2240010000        0.0448020000
 H       -5.7414780000       -0.6193520000       -0.4841140000
 H       -5.5990610000        1.1549530000       -0.4400040000
 H       -5.6263940000        0.2261060000        1.0901810000
 C        3.5445310000        1.9987330000        0.0037510000
 H        2.9408620000        2.9137400000        0.0015950000
 H        4.1991100000        2.0231980000       -0.8817400000
 H        4.1942300000        2.0241500000        0.8928040000

