%nproc=8
%mem=18000mb
#P PBE1PBE DEF2TZVPP OPT FREQ SCF(tight) INT(ultrafine)

 112-trimethyl-3p_2c_ox

 3 2
 N        3.8369340000        0.0839110000        0.0135510000
 C        3.2414570000       -1.0338360000        0.4599150000
 C        1.8551130000       -1.1617050000        0.4477850000
 C        3.0980270000        1.1151250000       -0.4520610000
 C        1.7136050000        1.0545240000       -0.4740360000
 C        1.0605290000       -0.1021580000       -0.0192010000
 H        3.6462270000        1.9912830000       -0.8109600000
 H        1.1783200000        1.9144300000       -0.8835200000
 H        3.8901060000       -1.8328310000        0.8294870000
 H        1.4361600000       -2.0915800000        0.8404070000
 C       -0.4216450000       -0.2042730000       -0.0272740000
 C       -1.0796460000       -1.4312200000       -0.2640070000
 C       -2.5130540000       -1.5050960000       -0.2932480000
 C       -1.2625220000        0.8898240000        0.1788170000
 C       -2.6940160000        0.7918830000        0.1611380000
 N       -3.2826570000       -0.4459820000       -0.0918580000
 H       -0.8553760000        1.8828880000        0.3911030000
 H       -0.5355750000       -2.3630320000       -0.4555370000
 H       -3.0095670000       -2.4644280000       -0.4865260000
 C       -4.7576130000       -0.5875480000       -0.1329690000
 H       -5.1806970000       -0.3049060000        0.8423080000
 H       -5.0064590000       -1.6336620000       -0.3469970000
 H       -5.1652230000        0.0535830000       -0.9284910000
 C        5.3107410000        0.2034690000        0.0185940000
 H        5.7488910000       -0.7086980000        0.4381140000
 H        5.5962680000        1.0708620000        0.6318260000
 H        5.6609680000        0.3450280000       -1.0146000000
 C       -3.5300110000        1.9537430000        0.4095170000
 H       -2.9482500000        2.8632500000        0.5998890000
 H       -4.2287100000        1.7788930000        1.2610740000
 H       -4.2328010000        2.1370080000       -0.4372440000

