%nproc=8
%mem=18000mb
#P PBE1PBE DEF2TZVPP OPT FREQ SCF(tight) INT(ultrafine)

 5-apz-14-dione_n_rd

-1 2
 C        2.1569050000        1.3940370000        0.0122800000
 C        1.1983230000        2.4124930000        0.0305080000
 C        1.7759090000        0.0434110000       -0.0268820000
 C        0.3799660000       -0.2642550000       -0.0239580000
 C       -0.5617930000        0.7767780000       -0.0100280000
 C       -0.1573900000        2.1202350000        0.0123800000
 C       -0.1196000000       -1.6433540000        0.0120410000
 N       -1.4777100000       -1.8689610000        0.0030630000
 C       -1.9957100000        0.4241630000       -0.0092840000
 N       -2.3534170000       -0.9099640000       -0.0136060000
 O       -2.8707760000        1.3000850000       -0.0067610000
 O        0.6517360000       -2.6294220000        0.0577380000
 N        2.6852590000       -0.9711610000       -0.0932550000
 H        3.6316370000       -0.7834860000        0.2017700000
 H        2.2563630000       -1.8987070000        0.0376240000
 H        3.2233980000        1.6426160000        0.0179650000
 H        1.5341240000        3.4545450000        0.0569360000
 H       -0.9317850000        2.8892880000        0.0221320000

