%nproc=8
%mem=18000mb
#P PBE1PBE DEF2TZVPP OPT FREQ SCF(tight) INT(ultrafine)

 5-apz-14-dione_n_ox

 1 2
 C       -2.1367660000        1.4231960000        0.0000610000
 C       -1.1900900000        2.4134600000        0.0000350000
 C       -1.7766260000        0.0382850000       -0.0000080000
 C       -0.3791180000       -0.2835040000       -0.0001140000
 C        0.5790020000        0.7750450000       -0.0001840000
 C        0.1867560000        2.1023590000       -0.0000790000
 C       -0.0274440000       -1.6687750000       -0.0000980000
 N        1.5448270000       -1.8675560000        0.0001960000
 C        2.0212110000        0.5516130000       -0.0003950000
 N        2.3487530000       -1.0294270000        0.0001350000
 O        2.9440990000        1.2689050000        0.0001330000
 O       -0.6730560000       -2.6621290000        0.0001010000
 N       -2.7305920000       -0.8888350000        0.0000400000
 H       -3.7060160000       -0.6163900000        0.0001110000
 H       -2.5052360000       -1.8796320000       -0.0000030000
 H       -3.1989300000        1.6807510000        0.0001450000
 H       -1.5016960000        3.4604480000        0.0000930000
 H        0.9410700000        2.8912670000       -0.0001210000

