%nproc=8
%mem=18000mb
#P PBE1PBE DEF2TZVPP OPT FREQ SCF(tight) INT(ultrafine)

 3h_2c_ox

 3 2
 C        3.5969540000       -0.3408880000       -0.0496960000
 C        2.8523230000       -1.4751320000        0.2174350000
 C        2.9017000000        0.8216390000       -0.3360290000
 C        1.4331390000       -1.4101630000        0.1900530000
 N        1.5430930000        0.9063340000       -0.3196940000
 C        0.7522060000       -0.1638850000       -0.0272360000
 C        0.7252400000       -2.6267270000        0.2844750000
 C       -0.6646790000       -2.6490570000        0.0738880000
 C       -1.3892190000       -1.4489010000       -0.0767880000
 C       -0.7425890000       -0.1601590000        0.0032880000
 C       -2.7947010000       -1.5626020000       -0.2380440000
 C       -3.5728810000       -0.4193390000       -0.2838930000
 C       -2.9286640000        0.7830050000       -0.0757080000
 N       -1.5758230000        0.9187760000        0.0915080000
 H        4.6917460000       -0.3408440000       -0.0580100000
 H        3.4297730000        1.7456170000       -0.5896820000
 H        3.3434730000       -2.4328260000        0.4240600000
 H        1.2666010000       -3.5628800000        0.4638230000
 H       -1.1957830000       -3.6077850000        0.0540570000
 C       -1.2553600000        2.3399580000        0.4831890000
 C        0.1878160000        2.7192820000        0.6023070000
 H       -1.7837720000        2.5029150000        1.4383860000
 H       -1.7513880000        2.9596570000       -0.2797990000
 C        0.9889610000        2.2509200000       -0.5963620000
 H        0.6478850000        2.3704770000        1.5411140000
 H        0.2135160000        3.8200550000        0.6571800000
 H        1.8382620000        2.9117820000       -0.8033140000
 H        0.3941680000        2.1958370000       -1.5242290000
 H       -4.6581210000       -0.4444780000       -0.4258710000
 H       -3.4986490000        1.7154150000       -0.0084400000
 H       -3.2500730000       -2.5564180000       -0.3172490000

