%nproc=8
%mem=18000mb
#P PBE1PBE DEF2TZVPP OPT FREQ SCF(tight) INT(ultrafine)

 3-methoxycarbonyl-3c_2c_gn

 2 1
 C        4.9155960000       -0.2052130000       -0.0490370000
 C        4.3087510000       -1.4285800000       -0.3222650000
 C        2.9161930000       -1.5207190000       -0.3174520000
 C        4.1122460000        0.8937500000        0.2060790000
 N        2.7692210000        0.7877450000        0.2059900000
 C        2.1426120000       -0.3989860000       -0.0352890000
 C        0.6664340000       -0.4501700000        0.0203660000
 N       -0.0381700000        0.7062260000       -0.1503880000
 C        1.9380220000        1.9669160000        0.5033190000
 C        0.7130690000        1.9526510000       -0.3762650000
 H        2.5282730000        2.8721120000        0.3115130000
 H        1.6734520000        1.9483040000        1.5737300000
 H        0.9762980000        2.0156070000       -1.4452690000
 H        0.0647440000        2.8038460000       -0.1321960000
 C       -0.0297360000       -1.6356860000        0.2336100000
 C       -1.4238100000       -1.6354430000        0.2422250000
 C       -2.1133560000       -0.4404140000        0.0423340000
 C       -1.3836620000        0.7251180000       -0.1458870000
 H        6.0017500000       -0.0885980000       -0.0434340000
 H        4.5233990000        1.8844990000        0.4147820000
 H       -1.8773620000        1.6889620000       -0.2938380000
 H        2.4343530000       -2.4694050000       -0.5565430000
 H        0.5134480000       -2.5635400000        0.4164990000
 H        4.9133880000       -2.3116350000       -0.5463850000
 H       -2.0001900000       -2.5516010000        0.4087440000
 C       -3.6242290000       -0.4561230000        0.0519790000
 O       -4.2256890000       -1.4769800000        0.2193610000
 O       -4.1136100000        0.7482290000       -0.1412760000
 C       -5.5498690000        0.8697960000       -0.1585500000
 H       -5.9641840000        0.2537470000       -0.9676700000
 H       -5.7582910000        1.9301790000       -0.3288140000
 H       -5.9616130000        0.5383520000        0.8039780000

