%nproc=8
%mem=18000mb
#P PBE1PBE DEF2TZVPP OPT FREQ SCF(tight) INT(ultrafine)

 3-methoxycarbonyl-3c_2c_rd

 1 2
 C        4.9223720000       -0.1715030000       -0.0251990000
 C        4.3135100000       -1.4443110000       -0.1664370000
 C        2.9456990000       -1.5502140000       -0.1582470000
 C        4.1176880000        0.9203940000        0.1313820000
 N        2.7602230000        0.8141040000        0.1492550000
 C        2.1199430000       -0.4065410000       -0.0092980000
 C        0.6953620000       -0.4638700000       -0.0165050000
 N       -0.0389870000        0.7110140000       -0.1399200000
 C        1.9423710000        1.9810070000        0.4414650000
 C        0.6880140000        1.9445340000       -0.4017710000
 H        2.5207530000        2.8876070000        0.2215460000
 H        1.6843770000        1.9894150000        1.5145380000
 H        0.9437050000        1.9983140000       -1.4738990000
 H        0.0416480000        2.7980060000       -0.1603440000
 C       -0.0416340000       -1.6717210000        0.0993720000
 C       -1.4105460000       -1.6703080000        0.1128580000
 C       -2.1178870000       -0.4406190000        0.0093700000
 C       -1.3934190000        0.7158220000       -0.1183540000
 H        6.0052050000       -0.0476420000       -0.0412070000
 H        4.5135770000        1.9298920000        0.2569920000
 H       -1.8818970000        1.6869620000       -0.2161010000
 H        2.4783820000       -2.5237400000       -0.2995420000
 H        0.4972120000       -2.6114360000        0.2121200000
 H        4.9287580000       -2.3366720000       -0.2955490000
 H       -1.9848890000       -2.5932470000        0.2160130000
 C       -3.6058660000       -0.4490730000        0.0419280000
 O       -4.2470920000       -1.4602930000        0.1463050000
 O       -4.1172130000        0.7744880000       -0.0582410000
 C       -5.5407080000        0.8640400000       -0.0398930000
 H       -5.9714530000        0.2993680000       -0.8785900000
 H       -5.7805480000        1.9286660000       -0.1311440000
 H       -5.9384270000        0.4592960000        0.9012730000

