%nproc=8
%mem=18000mb
#P PBE1PBE DEF2TZVPP OPT(calcall) FREQ SCF(tight) INT(ultrafine)

 1133-tetramethyl-3p_2c_gn

 2 1
 N        3.5065010000       -0.1140050000       -0.2953550000
 C        2.7994400000       -0.9268550000       -1.0975290000
 C        1.4146510000       -0.8981800000       -1.0771030000
 C        2.8830530000        0.7411680000        0.5394790000
 C        1.4971390000        0.8331480000        0.6188070000
 C        0.7464850000       -0.0197980000       -0.2209310000
 H        3.5318150000        1.3677190000        1.1562730000
 H        3.3624890000       -1.5944210000       -1.7524720000
 H        0.8682840000       -1.5683110000       -1.7442150000
 C       -0.7464850000        0.0198010000       -0.2209290000
 C       -1.4146530000        0.8981870000       -1.0770960000
 C       -2.7994420000        0.9268650000       -1.0975150000
 C       -1.4971380000       -0.8331470000        0.6188070000
 C       -2.8830520000       -0.7411630000        0.5394870000
 N       -3.5065010000        0.1140130000       -0.2953420000
 H       -0.8682880000        1.5683220000       -1.7442050000
 H       -3.3624930000        1.5944360000       -1.7524530000
 C       -4.9798090000        0.1385220000       -0.3186100000
 H       -5.3549410000        0.3727120000        0.6864500000
 H       -5.3538890000       -0.8432770000       -0.6387890000
 H       -5.3182260000        0.9060100000       -1.0226380000
 C        4.9798080000       -0.1385430000       -0.3185940000
 H        5.3182250000       -0.9057640000       -1.0229130000
 H        5.3549060000       -0.3731350000        0.6863880000
 H        5.3539230000        0.8433680000       -0.6383800000
 H       -3.5318130000       -1.3677160000        1.1562810000
 C        0.8616160000        1.8140330000        1.5536470000
 H        1.6070950000        2.3147950000        2.1845540000
 H        0.1341280000        1.3216990000        2.2165390000
 H        0.3199970000        2.5935590000        0.9950010000
 C       -0.8616130000       -1.8140350000        1.5536430000
 H       -0.3199890000       -2.5935560000        0.9949940000
 H       -1.6070910000       -2.3148040000        2.1845460000
 H       -0.1341280000       -1.3217030000        2.2165400000

