%nproc=8
%mem=18000mb
#P PBE1PBE DEF2TZVPP OPT FREQ SCF(tight) INT(ultrafine)

 1133-tetramethyl-3p_2c_ox

 3 2
 N        0.0195460000        3.5462550000       -0.3259900000
 C        0.5923350000        2.8220940000       -1.3308770000
 C        0.5781530000        1.4364920000       -1.3151960000
 C       -0.5781530000        2.9293360000        0.6867800000
 C       -0.6575470000        1.5065890000        0.7761130000
 C       -0.0029680000        0.7422040000       -0.2456640000
 H       -1.0263900000        3.5610450000        1.4608900000
 H        1.0771040000        3.3921740000       -2.1304520000
 H        1.0711340000        0.9118350000       -2.1384000000
 C        0.0029680000       -0.7422040000       -0.2456640000
 C       -0.5781530000       -1.4364920000       -1.3151960000
 C       -0.5923350000       -2.8220940000       -1.3308770000
 C        0.6575470000       -1.5065890000        0.7761130000
 C        0.5781530000       -2.9293360000        0.6867800000
 N       -0.0195460000       -3.5462550000       -0.3259900000
 H       -1.0711340000       -0.9118350000       -2.1384000000
 H       -1.0771040000       -3.3921740000       -2.1304520000
 C       -0.0774030000       -5.0236310000       -0.3963240000
 H        0.4196800000       -5.4518610000        0.4813260000
 H        0.4310840000       -5.3542670000       -1.3149430000
 H       -1.1325370000       -5.3358090000       -0.4223150000
 C        0.0774030000        5.0236310000       -0.3963240000
 H        1.1325370000        5.3358090000       -0.4223150000
 H       -0.4196800000        5.4518610000        0.4813260000
 H       -0.4310840000        5.3542670000       -1.3149430000
 H        1.0263900000       -3.5610450000        1.4608900000
 C       -1.5057420000        0.9281750000        1.8321350000
 H       -2.5759480000        1.0157900000        1.5280660000
 H       -1.4417610000        1.4899160000        2.7794830000
 H       -1.3395370000       -0.1457520000        1.9964800000
 C        1.5057420000       -0.9281750000        1.8321350000
 H        1.3395370000        0.1457520000        1.9964800000
 H        2.5759480000       -1.0157900000        1.5280660000
 H        1.4417610000       -1.4899160000        2.7794830000

