%nproc=8
%mem=18000mb
#P PBE1PBE DEF2TZVPP OPT FREQ SCF(tight) INT(ultrafine)

 1-chloro-3h_2c_rd

 1 2
 C        2.6745090000        1.4894190000        0.0682770000
 C        2.6111060000        0.0800700000        0.0835930000
 C        1.5263940000        2.1927840000       -0.1687140000
 C        1.3777230000       -0.5762930000       -0.0173200000
 N        0.3164770000        1.5900920000       -0.3036670000
 C        0.1814990000        0.2153770000       -0.0890880000
 C        1.2612780000       -2.0038470000       -0.0625740000
 C        0.0497260000       -2.6036940000       -0.1759510000
 C       -1.1638820000       -1.8421800000       -0.1357080000
 C       -1.0738210000       -0.4191910000        0.0160430000
 C       -2.4153190000       -2.4468580000       -0.2268220000
 C       -3.5829780000       -1.6706120000       -0.1323390000
 C       -3.4650020000       -0.3388270000        0.1715990000
 N       -2.2554700000        0.2703880000        0.3033030000
 H        3.6264770000        2.0078970000        0.1765770000
 H        1.5362330000        3.2765380000       -0.2992800000
 H        2.1777040000       -2.5945820000       -0.0370120000
 H       -0.0242020000       -3.6893590000       -0.2672220000
 C       -2.1848870000        1.5637710000        0.9887430000
 C       -1.8747100000        2.7198750000        0.0553400000
 H       -1.4080820000        1.4729170000        1.7645330000
 H       -3.1353940000        1.7206470000        1.5148400000
 C       -0.7827580000        2.3337770000       -0.9257830000
 H       -1.5751700000        3.5886620000        0.6618920000
 H       -2.7672230000        3.0207730000       -0.5149870000
 H       -0.3574030000        3.2184560000       -1.4171090000
 H       -1.1885270000        1.6952750000       -1.7264170000
 H       -4.5742050000       -2.1127600000       -0.2336630000
 H       -4.3344680000        0.2916500000        0.3669280000
 H       -2.4780920000       -3.5281480000       -0.3648550000
Cl        4.0730610000       -0.7972210000        0.2166200000

