%nproc=8
%mem=18000mb
#P PBE1PBE DEF2TZVPP OPT FREQ SCF(tight) INT(ultrafine)

 1-chloro-3h_2c_gn

 2 1
 C        2.6952750000        1.4629610000        0.0194940000
 C        2.6293180000        0.0783960000        0.0945590000
 C        1.5371100000        2.1712200000       -0.2586590000
 C        1.3580590000       -0.5758030000       -0.0036230000
 N        0.3343080000        1.5853800000       -0.3358010000
 C        0.1961690000        0.2321490000       -0.0938480000
 C        1.2474710000       -1.9966210000       -0.0655070000
 C        0.0352680000       -2.5890350000       -0.2508930000
 C       -1.1622660000       -1.8155900000       -0.2014250000
 C       -1.0904400000       -0.4128550000       -0.0061980000
 C       -2.4364760000       -2.4283940000       -0.2852190000
 C       -3.5790630000       -1.6782830000       -0.1099770000
 C       -3.4414140000       -0.3423740000        0.2661040000
 N       -2.2486410000        0.2589200000        0.3370040000
 H        3.6493570000        1.9882420000        0.0938640000
 H        1.5705390000        3.2431870000       -0.4683620000
 H        2.1590850000       -2.5945240000       -0.0159230000
 H       -0.0412670000       -3.6703390000       -0.3856200000
 C       -2.1638640000        1.5777790000        1.0135810000
 C       -1.8631740000        2.7259620000        0.0734170000
 H       -1.3819080000        1.4738210000        1.7812240000
 H       -3.1095470000        1.7337800000        1.5470760000
 C       -0.7901010000        2.3505010000       -0.9270450000
 H       -1.5622330000        3.5912740000        0.6839950000
 H       -2.7586800000        3.0345200000       -0.4877780000
 H       -0.3646550000        3.2391440000       -1.4095890000
 H       -1.1970610000        1.7207270000       -1.7330530000
 H       -4.5769070000       -2.1167140000       -0.1754300000
 H       -4.3039160000        0.2567660000        0.5686170000
 H       -2.4999590000       -3.5039740000       -0.4733690000
Cl        4.0462500000       -0.8156530000        0.2869030000

