%nproc=8
%mem=18000mb
#P PBE1PBE DEF2TZVPP OPT FREQ SCF(tight) INT(ultrafine)

 3-bromo-7a_n_ox

 1 2
 C        4.9390080000       -1.4667490000       -0.0000000000
 C        5.1188210000       -0.0720580000       -0.0000000000
 C        3.6689400000       -2.0076860000       -0.0000000000
 C        2.5402850000       -1.1654180000       -0.0000000000
 C        2.7239180000        0.2395460000       -0.0000000000
 C        4.0221390000        0.7721970000       -0.0000000000
 H        5.8072100000       -2.1288040000       -0.0000000000
 H        3.5281040000       -3.0917630000       -0.0000000000
 H        6.1257680000        0.3497250000       -0.0000000000
 H        4.1593100000        1.8563150000       -0.0000000000
 N        1.2871200000       -1.7202870000       -0.0000000000
 C        0.0836850000       -1.0748750000       -0.0000000000
 C        0.0000000000        0.3415410000        0.0000000000
 S        1.4020690000        1.3645770000       -0.0000000000
 C       -1.1085600000       -1.8280570000        0.0000000000
 C       -2.3355260000       -1.2026520000        0.0000000000
 C       -2.4096660000        0.2065470000        0.0000000000
 C       -1.2506920000        0.9709040000        0.0000000000
 H       -1.0539540000       -2.9198370000        0.0000000000
 H       -3.2529460000       -1.7938290000        0.0000000000
 H       -1.3130020000        2.0613230000        0.0000000000
 H        1.2500930000       -2.7363040000       -0.0000000000
Br       -4.0756470000        1.0380720000        0.0000000000

