%nproc=8
%mem=18000mb
#P PBE1PBE DEF2TZVPP OPT FREQ SCF(tight) INT(ultrafine)

 3-propoxy-3c_2c_gn

 2 1
 C        4.9785650000        0.0261910000        0.2674670000
 C        4.4856720000       -1.2643460000        0.0757150000
 C        3.1125120000       -1.4661600000       -0.0441710000
 C        4.0810920000        1.0759490000        0.3231530000
 N        2.7537400000        0.8630360000        0.2082640000
 C        2.2350230000       -0.3858570000        0.0357930000
 C        0.7751500000       -0.5446610000       -0.0514330000
 N        0.0068600000        0.5208520000       -0.3958740000
 C        1.8157290000        1.9907330000        0.3117020000
 C        0.6848910000        1.8005170000       -0.6673950000
 C        0.1309050000       -1.7647040000        0.1911740000
 C       -1.2364710000       -1.8824900000        0.0559550000
 C       -2.0134520000       -0.7686050000       -0.3362870000
 C       -1.3280350000        0.4462030000       -0.5401030000
 H        6.0477670000        0.2271170000        0.3625870000
 H        2.7249630000       -2.4692750000       -0.2236530000
 H        0.7108790000       -2.6303610000        0.5125970000
 H       -1.7470180000       -2.8295380000        0.2489800000
 H        5.1693440000       -2.1149150000        0.0096610000
 H        4.3973710000        2.1126360000        0.4607810000
 H       -1.8371800000        1.3694050000       -0.8161820000
 H       -0.0414210000        2.6160380000       -0.5621370000
 H        1.0436420000        1.7898400000       -1.7099770000
 H        2.3531880000        2.9209620000        0.0873440000
 H        1.4486280000        2.0462750000        1.3501060000
 O       -3.2915550000       -0.9417700000       -0.4769450000
 C       -4.2040420000        0.1138720000       -0.8716510000
 C       -4.6325890000        0.9692910000        0.3020720000
 H       -5.0553460000       -0.4346800000       -1.2957170000
 H       -3.7412900000        0.6941840000       -1.6873720000
 C       -5.3486450000        0.2003380000        1.4015660000
 H       -3.7649190000        1.5163820000        0.7150060000
 H       -5.2957680000        1.7457640000       -0.1154920000
 H       -5.6618190000        0.8786190000        2.2071670000
 H       -4.7077260000       -0.5747510000        1.8478570000
 H       -6.2528900000       -0.2943790000        1.0159370000

