%nproc=8
%mem=18000mb
#P PBE1PBE DEF2TZVPP OPT FREQ SCF(tight) INT(ultrafine)

 3-propoxy-3c_2c_ox

 3 2
 C        5.0785820000       -0.3033110000        0.2228080000
 C        4.4684540000       -1.5186520000       -0.0653090000
 C        3.0732440000       -1.5761860000       -0.1681820000
 C        4.2809550000        0.8280070000        0.3870440000
 N        2.9442830000        0.7579430000        0.2772910000
 C        2.3074050000       -0.4257510000        0.0145340000
 C        0.8376280000       -0.4443050000       -0.0668740000
 N        0.1642110000        0.7235900000       -0.3023060000
 C        2.1207850000        1.9599870000        0.4933290000
 C        0.9651550000        1.9602930000       -0.4759580000
 C        0.0922210000       -1.6265640000        0.0703760000
 C       -1.2819240000       -1.6143170000       -0.0619110000
 C       -1.9443800000       -0.3944180000       -0.3308820000
 C       -1.1708460000        0.7781810000       -0.4361510000
 H        6.1647330000       -0.2092450000        0.3155100000
 H        2.5963930000       -2.5252480000       -0.4190410000
 H        0.5953190000       -2.5665600000        0.3032430000
 H       -1.8717990000       -2.5317050000        0.0370780000
 H        5.0662220000       -2.4232210000       -0.2150870000
 H        4.7067710000        1.8108710000        0.6109710000
 H       -1.5960470000        1.7622140000       -0.6472970000
 H        0.3205430000        2.8296870000       -0.2909670000
 H        1.3052310000        1.9967730000       -1.5252330000
 H        2.7391180000        2.8522550000        0.3242520000
 H        1.7849570000        1.9737720000        1.5440660000
 O       -3.2513220000       -0.4648560000       -0.4975930000
 C       -4.1828530000        0.5554390000       -0.6555410000
 C       -5.1936550000        0.5856460000        0.5948570000
 H       -4.8182380000        0.2633360000       -1.5116840000
 H       -3.7279700000        1.5451580000       -0.7917840000
 C       -6.0617880000       -0.6014600000        0.7981040000
 H       -4.5417240000        0.7995460000        1.4612470000
 H       -5.7812370000        1.4846320000        0.3265470000
 H       -6.7594350000       -0.3760960000        1.6447390000
 H       -5.5277050000       -1.5093310000        1.1170620000
 H       -6.7379160000       -0.8042530000       -0.0492410000

