%nproc=8
%mem=18000mb
#P PBE1PBE DEF2TZVPP OPT FREQ SCF(tight) INT(ultrafine)

 7j_n_ox

 1 2
 C        0.0000000000        3.6879550000        0.0450050000
 C        0.0000000000        3.7687240000        1.4667170000
 C        0.0000000000        2.4110790000       -0.5930010000
 C        0.0000000000        1.2341010000        0.2357660000
 C        0.0000000000        1.3640440000        1.6336890000
 C        0.0000000000        2.6408390000        2.2420850000
 H        0.0000000000        4.7536150000        1.9388080000
 H        0.0000000000        2.7139500000        3.3319610000
 N        0.0000000000        0.0000000000       -0.3535900000
 C       -0.0000000000       -1.2341010000        0.2357660000
 C       -0.0000000000       -1.3640440000        1.6336890000
 S       -0.0000000000       -0.0000000000        2.7052310000
 C       -0.0000000000       -2.4110790000       -0.5930010000
 C       -0.0000000000       -3.6879550000        0.0450050000
 C       -0.0000000000       -3.7687240000        1.4667170000
 C       -0.0000000000       -2.6408390000        2.2420850000
 H       -0.0000000000       -2.7139500000        3.3319610000
 H       -0.0000000000       -4.7536150000        1.9388080000
 H        0.0000000000        0.0000000000       -1.3663550000
 C        0.0000000000        4.8577350000       -0.7476490000
 C        0.0000000000        2.3632250000       -2.0066740000
 C        0.0000000000        4.7798780000       -2.1239880000
 C        0.0000000000        3.5223180000       -2.7554510000
 H        0.0000000000        1.4146370000       -2.5501800000
 H        0.0000000000        3.4614440000       -3.8457030000
 H        0.0000000000        5.8296370000       -0.2488430000
 H        0.0000000000        5.6907800000       -2.7261430000
 C       -0.0000000000       -2.3632250000       -2.0066740000
 C       -0.0000000000       -3.5223180000       -2.7554510000
 C       -0.0000000000       -4.7798780000       -2.1239880000
 C       -0.0000000000       -4.8577350000       -0.7476490000
 H       -0.0000000000       -5.6907800000       -2.7261430000
 H       -0.0000000000       -5.8296370000       -0.2488430000
 H       -0.0000000000       -1.4146370000       -2.5501800000
 H       -0.0000000000       -3.4614440000       -3.8457030000

