%nproc=8
%mem=18000mb
#P PBE1PBE DEF2TZVPP OPT FREQ SCF(tight) INT(ultrafine)

 7j_n_gn

 0 1
 C       -0.0227650000       -0.2732320000       -3.6000620000
 C       -1.4209050000       -0.4871850000       -3.6817540000
 C        0.5632060000        0.1085570000       -2.3499960000
 C       -0.2929090000        0.3254410000       -1.2236950000
 C       -1.6578370000        0.1141300000       -1.3514670000
 C       -2.2149640000       -0.3180590000       -2.5733090000
 H       -1.8582370000       -0.7940580000       -4.6345010000
 H       -3.2921320000       -0.4929670000       -2.6267400000
 N        0.2314620000        0.7308850000        0.0000000000
 C       -0.2929090000        0.3254410000        1.2236950000
 C       -1.6578370000        0.1141300000        1.3514670000
 S       -2.7355400000        0.4990270000       -0.0000000000
 C        0.5632060000        0.1085570000        2.3499960000
 C       -0.0227650000       -0.2732320000        3.6000620000
 C       -1.4209050000       -0.4871850000        3.6817540000
 C       -2.2149640000       -0.3180590000        2.5733090000
 H       -3.2921320000       -0.4929670000        2.6267400000
 H       -1.8582370000       -0.7940580000        4.6345010000
 H        1.2006200000        1.0061180000        0.0000000000
 C        0.8203630000       -0.4462870000       -4.7281740000
 C        1.9734230000        0.2644180000       -2.2879360000
 C        2.1802990000       -0.2668520000       -4.6384670000
 C        2.7623620000        0.0860480000       -3.4010320000
 H        2.4620340000        0.5176290000       -1.3441680000
 H        3.8450960000        0.2100650000       -3.3246910000
 H        0.3622390000       -0.7315450000       -5.6789110000
 H        2.8132580000       -0.4043760000       -5.5181950000
 C        1.9734230000        0.2644180000        2.2879360000
 C        2.7623620000        0.0860480000        3.4010320000
 C        2.1802990000       -0.2668520000        4.6384670000
 C        0.8203630000       -0.4462870000        4.7281740000
 H        2.8132580000       -0.4043760000        5.5181950000
 H        0.3622390000       -0.7315450000        5.6789110000
 H        2.4620340000        0.5176290000        1.3441680000
 H        3.8450960000        0.2100650000        3.3246910000

