%nproc=8
%mem=18000mb
#P PBE1PBE DEF2TZVPP OPT FREQ SCF(tight) INT(ultrafine)

 7j_n_rd

-1 2
 C       -0.0441360000       -0.1745430000       -3.6837700000
 C       -1.4538450000       -0.3231440000       -3.7591620000
 C        0.5732220000        0.0605510000       -2.4011600000
 C       -0.2578820000        0.1759960000       -1.2397880000
 C       -1.6572960000        0.0394630000       -1.3673390000
 C       -2.2306970000       -0.2197170000       -2.6141170000
 H       -1.9174280000       -0.5235520000       -4.7285410000
 H       -3.3186310000       -0.3219100000       -2.6757930000
 N        0.3111470000        0.4005830000       -0.0000000000
 C       -0.2578820000        0.1759960000        1.2397880000
 C       -1.6572960000        0.0394630000        1.3673390000
 S       -2.7190430000        0.3932790000        0.0000000000
 C        0.5732220000        0.0605510000        2.4011600000
 C       -0.0441360000       -0.1745430000        3.6837700000
 C       -1.4538450000       -0.3231440000        3.7591620000
 C       -2.2306970000       -0.2197170000        2.6141170000
 H       -3.3186310000       -0.3219100000        2.6757930000
 H       -1.9174280000       -0.5235520000        4.7285410000
 H        1.3005150000        0.5882350000       -0.0000000000
 C        0.7822280000       -0.2621370000       -4.8297780000
 C        1.9894940000        0.1565980000       -2.3565390000
 C        2.1649570000       -0.1434570000       -4.7502620000
 C        2.7691280000        0.0607000000       -3.5037190000
 H        2.5034210000        0.2946650000       -1.4011800000
 H        3.8574450000        0.1365890000       -3.4246320000
 H        0.3006850000       -0.4324770000       -5.7978260000
 H        2.7765420000       -0.2175550000       -5.6541450000
 C        1.9894940000        0.1565980000        2.3565390000
 C        2.7691280000        0.0607000000        3.5037190000
 C        2.1649570000       -0.1434570000        4.7502620000
 C        0.7822280000       -0.2621370000        4.8297780000
 H        2.7765420000       -0.2175550000        5.6541450000
 H        0.3006850000       -0.4324770000        5.7978260000
 H        2.5034210000        0.2946650000        1.4011800000
 H        3.8574450000        0.1365890000        3.4246320000

