%nproc=8
%mem=18000mb
#P PBE1PBE DEF2TZVPP OPT FREQ SCF(tight) INT(ultrafine)

 3-methoxy-3c_2c_gn

 2 1
 C        4.2455980000       -0.5791320000        0.0063530000
 C        3.4992270000       -1.7323620000       -0.2353550000
 C        2.1082350000       -1.6608550000       -0.2537510000
 C        3.5751300000        0.6117360000        0.2122820000
 N        2.2266710000        0.6634490000        0.1955550000
 C        1.4645670000       -0.4461980000       -0.0217890000
 C       -0.0007270000       -0.3190160000        0.0063700000
 N       -0.5679640000        0.9064970000       -0.1939070000
 C        1.5380040000        1.9369190000        0.4564600000
 C        0.3283890000        2.0510350000       -0.4364660000
 H        2.2315950000        2.7630520000        0.2540510000
 H        1.2607720000        1.9736160000        1.5232100000
 H        0.6058000000        2.0536010000       -1.5035410000
 H       -0.2152240000        2.9791030000       -0.2193930000
 C       -0.8547580000       -1.4026960000        0.2175670000
 C       -2.2338450000       -1.2533680000        0.2043080000
 C       -2.7876900000        0.0199750000       -0.0266050000
 C       -1.8892110000        1.0916100000       -0.2157960000
 H        5.3374580000       -0.5918270000        0.0247440000
 H        4.0956250000        1.5546910000        0.3957570000
 H       -2.2677410000        2.1023080000       -0.3850380000
 H        1.5221520000       -2.5536770000       -0.4730350000
 H       -0.4340100000       -2.3881860000        0.4210550000
 H        3.9984300000       -2.6872990000       -0.4201710000
 H       -2.8719400000       -2.1212070000        0.3810630000
 O       -4.0501590000        0.3298670000       -0.0735280000
 C       -5.0696450000       -0.6597150000        0.1079190000
 H       -6.0200070000       -0.1247220000        0.0122560000
 H       -4.9947490000       -1.1055280000        1.1111440000
 H       -4.9974710000       -1.4300810000       -0.6744000000

