%nproc=8
%mem=18000mb
#P PBE1PBE DEF2TZVPP OPT(calcall) FREQ SCF(tight) INT(ultrafine)

 1-allyl-3q_2c_gn

 2 1
 N       -2.7278280000        0.4296210000       -0.2518450000
 C       -1.9493430000        1.5047730000       -0.4721920000
 C       -0.5698850000        1.4140390000       -0.4065990000
 C       -2.1785360000       -0.7632320000        0.0393790000
 C       -0.8045780000       -0.9182230000        0.1078670000
 C        0.0342210000        0.1830730000       -0.1136970000
 C        1.5105930000        0.0519450000       -0.0382760000
 C        2.3004450000        1.0555960000        0.5376470000
 C        3.6756930000        0.9042300000        0.5965440000
 N        4.2754640000       -0.1938620000        0.1007390000
 C        2.1655170000       -1.0825890000       -0.5421790000
 C        3.5422100000       -1.1755790000       -0.4628100000
 H       -2.4592490000        2.4415620000       -0.7078140000
 H        0.0176370000        2.3112530000       -0.6108590000
 H       -2.8794400000       -1.5809030000        0.2275270000
 H       -0.4078900000       -1.9022090000        0.3654930000
 H        1.8621830000        1.9559960000        0.9724880000
 H        4.3234480000        1.6594210000        1.0464220000
 H        4.0919430000       -2.0357900000       -0.8519310000
 H        1.6198230000       -1.8951780000       -1.0257290000
 C        5.7403590000       -0.3406390000        0.1648960000
 H        6.1719940000        0.5395700000        0.6529380000
 H        6.1403320000       -0.4280980000       -0.8543840000
 H        5.9892930000       -1.2402010000        0.7439260000
 C       -4.2199490000        0.5515500000       -0.3702050000
 C       -4.9511210000       -0.2259150000        0.6728510000
 H       -4.4372000000        1.6273690000       -0.2978760000
 H       -4.4845270000        0.2181190000       -1.3862400000
 C       -5.8234820000       -1.1931990000        0.3793330000
 H       -4.7953050000        0.0811920000        1.7139510000
 H       -6.0287970000       -1.5000680000       -0.6518560000
 H       -6.3905530000       -1.6973420000        1.1663370000

