%nproc=8
%mem=18000mb
#P PBE1PBE DEF2TZVPP OPT FREQ SCF(tight) INT(ultrafine)

 1-allyl-3q_2c_rd

 1 2
 N       -2.7551110000        0.4419720000       -0.2521870000
 C       -1.9638530000        1.5401220000       -0.1027780000
 C       -0.6029810000        1.4447690000       -0.0282730000
 C       -2.1660380000       -0.7860380000       -0.3259120000
 C       -0.8109950000       -0.9391050000       -0.2605120000
 C        0.0616870000        0.1825010000       -0.1062930000
 C        1.4830400000        0.0514830000       -0.0341750000
 C        2.3559210000        1.1723420000        0.1230750000
 C        3.7108900000        1.0187910000        0.1893860000
 N        4.3021380000       -0.2083040000        0.1137170000
 C        2.1484760000       -1.2110910000       -0.1111170000
 C        3.5084420000       -1.3073680000       -0.0391340000
 H       -2.4790860000        2.5002790000       -0.0473350000
 H       -0.0480000000        2.3740570000        0.0935920000
 H       -2.8453080000       -1.6336960000       -0.4292380000
 H       -0.4239830000       -1.9550350000       -0.3286010000
 H        1.9695690000        2.1879510000        0.1987360000
 H        4.3835100000        1.8694550000        0.3087880000
 H        4.0235260000       -2.2673480000       -0.0976240000
 H        1.5928570000       -2.1408300000       -0.2265970000
 C        5.7514880000       -0.3351060000        0.1194130000
 H        6.1897650000        0.4656830000        0.7279840000
 H        6.1543850000       -0.2712170000       -0.9034860000
 H        6.0359780000       -1.3000810000        0.5571610000
 C       -4.2165750000        0.5612910000       -0.3632660000
 C       -4.9412080000       -0.2498040000        0.6653880000
 H       -4.4527960000        1.6301770000       -0.2510110000
 H       -4.5202360000        0.2647740000       -1.3804470000
 C       -5.8523580000       -1.1761050000        0.3666990000
 H       -4.7042650000       -0.0260580000        1.7122990000
 H       -6.1156400000       -1.4126340000       -0.6696990000
 H       -6.3850810000       -1.7212330000        1.1497500000

