%nproc=8
%mem=18000mb
#P PBE1PBE DEF2TZVPP OPT(calcall) FREQ SCF(tight) INT(ultrafine)

 3355-tbromodiphenq_n_rd

-1 2
 C       -2.8463200000       -1.2064050000        0.0000010000
 C       -3.6706450000        0.0000000000       -0.0000080000
 C       -2.8463200000        1.2064050000       -0.0000020000
 C       -1.4767530000       -1.2078190000        0.0000030000
 C       -0.7219660000       -0.0000000000        0.0000020000
 C       -1.4767520000        1.2078190000        0.0000010000
 H       -0.9691320000       -2.1717070000        0.0000080000
 H       -0.9691320000        2.1717060000        0.0000020000
 O       -4.9004190000        0.0000000000        0.0000010000
 C        0.7219660000       -0.0000000000        0.0000060000
 C        1.4767530000       -1.2078190000        0.0000020000
 C        2.8463200000       -1.2064050000        0.0000040000
 C        3.6706450000        0.0000000000        0.0000210000
 C        2.8463200000        1.2064050000        0.0000070000
 C        1.4767520000        1.2078190000        0.0000050000
 H        0.9691320000       -2.1717070000       -0.0000050000
 H        0.9691320000        2.1717060000        0.0000010000
 O        4.9004190000        0.0000000000       -0.0000070000
Br       -3.7869440000       -2.8447420000        0.0000050000
Br       -3.7869430000        2.8447420000       -0.0000020000
Br        3.7869440000       -2.8447420000       -0.0000080000
Br        3.7869430000        2.8447420000       -0.0000010000

