%nproc=8
%mem=18000mb
#P PBE1PBE DEF2TZVPP OPT FREQ SCF(tight) INT(ultrafine)

 3g_2c_ox

 3 2
 C       -3.5222700000        0.0372290000        0.0524310000
 C       -2.8602180000        1.2586000000        0.1106950000
 C       -1.4391380000        1.2833930000        0.0722030000
 C       -2.7740110000       -1.1285000000       -0.0708550000
 N       -1.4167580000       -1.1058970000       -0.0969280000
 C       -0.7296570000        0.0531980000        0.0012380000
 C       -0.7098370000        2.4976710000        0.0491780000
 C        0.7098370000        2.4976710000       -0.0491780000
 C        1.4391380000        1.2833930000       -0.0722030000
 C        0.7296570000        0.0531980000       -0.0012380000
 C        2.8602180000        1.2586000000       -0.1106950000
 C        3.5222700000        0.0372290000       -0.0524310000
 C        2.7740110000       -1.1285000000        0.0708550000
 N        1.4167580000       -1.1058970000        0.0969280000
 C       -0.6606320000       -2.3553110000       -0.3643380000
 C        0.6606320000       -2.3553110000        0.3643380000
 H       -0.5406440000       -2.4349600000       -1.4591130000
 H       -1.2604580000       -3.2126730000       -0.0267170000
 H        1.2604580000       -3.2126730000        0.0267170000
 H        0.5406440000       -2.4349600000        1.4591130000
 H       -3.4253560000        2.1958900000        0.1768130000
 H       -4.6152970000       -0.0269960000        0.0809990000
 H       -3.2459300000       -2.1136290000       -0.1610550000
 H        3.4253560000        2.1958900000       -0.1768130000
 H        4.6152970000       -0.0269960000       -0.0809990000
 H        3.2459300000       -2.1136290000        0.1610550000
 H       -1.2430690000        3.4559620000        0.0840780000
 H        1.2430690000        3.4559620000       -0.0840780000

