%nproc=8
%mem=18000mb
#P PBE1PBE DEF2TZVPP OPT FREQ SCF(tight) INT(ultrafine)

 3g_2c_gn

 2 1
 C        0.0172120000        3.4928100000        0.0379780000
 C       -0.0333110000        2.8286930000        1.2479930000
 C       -0.0228030000        1.4134100000        1.2861320000
 C        0.1165840000        2.7514060000       -1.1394180000
 N        0.1210870000        1.4143980000       -1.1179140000
 C        0.0172120000        0.7153320000        0.0562400000
 C       -0.0266490000        0.6813420000        2.5137480000
 C        0.0266490000       -0.6813420000        2.5137480000
 C        0.0228030000       -1.4134100000        1.2861320000
 C       -0.0172120000       -0.7153320000        0.0562400000
 C        0.0333110000       -2.8286930000        1.2479930000
 C       -0.0172120000       -3.4928100000        0.0379780000
 C       -0.1165840000       -2.7514060000       -1.1394180000
 N       -0.1210870000       -1.4143980000       -1.1179140000
 C        0.3885730000        0.6467400000       -2.3462330000
 C       -0.3885730000       -0.6467400000       -2.3462330000
 H        1.4749980000        0.4660850000       -2.3990650000
 H        0.0986300000        1.2516510000       -3.2150850000
 H       -0.0986300000       -1.2516510000       -3.2150850000
 H       -1.4749980000       -0.4660850000       -2.3990650000
 H       -0.0757320000        3.3905250000        2.1853640000
 H        0.0059970000        4.5832380000       -0.0195500000
 H        0.2110760000        3.2261530000       -2.1195540000
 H        0.0757320000       -3.3905250000        2.1853640000
 H       -0.0059970000       -4.5832380000       -0.0195500000
 H       -0.2110760000       -3.2261530000       -2.1195540000
 H       -0.0535560000        1.2356240000        3.4546550000
 H        0.0535560000       -1.2356240000        3.4546550000

