%nproc=8
%mem=18000mb
#P PBE1PBE DEF2TZVPP OPT FREQ SCF(tight) INT(ultrafine)

 11-diethyl-2-methyl-3p_2c_gn

 2 1
 N        3.7538940000       -0.2005450000       -0.0432450000
 C        3.0624260000        0.8383050000        0.4527320000
 C        1.6757220000        0.8476780000        0.4421350000
 C        3.1019200000       -1.2625370000       -0.5609600000
 C        1.7224710000       -1.3137500000       -0.5917400000
 C        0.9716090000       -0.2407160000       -0.0847480000
 H        3.7223590000       -2.0711920000       -0.9543960000
 H        1.2465380000       -2.1884720000       -1.0390570000
 H        3.6396260000        1.6657960000        0.8653900000
 H        1.1632700000        1.7075170000        0.8775590000
 C       -0.5117630000       -0.2661350000       -0.1058850000
 C       -1.2194820000       -1.4458410000        0.1681690000
 C       -2.5969910000       -1.4215760000        0.1369340000
 C       -1.2502730000        0.8808780000       -0.4023710000
 C       -2.6476610000        0.8684380000       -0.4336140000
 N       -3.2866960000       -0.2992180000       -0.1587650000
 H       -0.7507400000        1.8192750000       -0.6491360000
 H       -0.7182100000       -2.3792130000        0.4298610000
 H       -3.1928410000       -2.3109880000        0.3521120000
 C       -4.7714930000       -0.3834180000       -0.1249640000
 C        5.2509180000       -0.2331160000       -0.0462990000
 C       -3.4268750000        2.0890540000       -0.7807730000
 H       -3.9609020000        1.9591900000       -1.7368320000
 H       -2.7550180000        2.9482970000       -0.8894010000
 H       -4.1740970000        2.3338840000       -0.0116100000
 C       -5.3342970000       -0.1155600000        1.2582120000
 H       -5.0298970000       -1.3930800000       -0.4721660000
 H       -5.1614130000        0.3181780000       -0.8715650000
 H       -4.9680190000       -0.8462100000        1.9943600000
 H       -6.4292780000       -0.2059690000        1.2151120000
 H       -5.0970540000        0.8951140000        1.6204560000
 C        5.9255870000        0.9792480000        0.5419970000
 H        5.5418870000       -0.3753240000       -1.0982830000
 H        5.5287980000       -1.1453740000        0.5033610000
 H        5.7073210000        1.9024850000       -0.0151990000
 H        7.0109290000        0.8172480000        0.4721100000
 H        5.6954550000        1.1214700000        1.6084390000

