%nproc=8
%mem=18000mb
#P PBE1PBE DEF2TZVPP OPT FREQ SCF(tight) INT(ultrafine)

 i47di-1-met-23-ch23_n_ox

 1 2
 C        3.0962760000       -0.1266360000        0.0254650000
 C        2.7040540000       -1.4164200000        0.0204160000
 C        2.1480470000        1.0157380000        0.0114300000
 H        4.1539000000        0.1503550000        0.0394620000
 C        0.7166400000        0.6286720000       -0.0030720000
 C        0.3228800000       -0.6929400000       -0.0134670000
 C        1.2780410000       -1.8232980000       -0.0005330000
 H        3.4276740000       -2.2359520000        0.0305430000
 C       -0.4659260000        1.4598810000       -0.0203540000
 N       -1.5193540000        0.6000810000       -0.0341690000
 C       -1.1024280000       -0.6948890000       -0.0353620000
 O        2.5035450000        2.1737190000        0.0096720000
 O        0.9015850000       -2.9735420000       -0.0069980000
 C       -0.5815390000        2.9217150000        0.0063440000
 H        0.3750920000        3.3802030000       -0.2733900000
 H       -0.8127820000        3.2519750000        1.0377690000
 H       -1.3986450000        3.2801410000       -0.6378600000
 C       -2.9780690000        0.7328040000       -0.0984930000
 C       -3.4448240000       -0.7005980000        0.2208280000
 H       -3.2642210000        1.0635890000       -1.1098210000
 H       -3.3314460000        1.4795020000        0.6255100000
 C       -2.2444340000       -1.6184220000       -0.0962320000
 H       -4.3432360000       -0.9707080000       -0.3479580000
 H       -3.6976680000       -0.7809500000        1.2880440000
 H       -2.2866570000       -2.0539560000       -1.1145170000
 H       -2.1198860000       -2.4798300000        0.5781910000

