%nproc=8
%mem=18000mb
#P PBE1PBE DEF2TZVPP OPT FREQ SCF(tight) INT(ultrafine)

 66-dimethyl-3c_2c_rd

 1 2
 C       -3.7110820000       -0.0523790000       -0.0296890000
 C       -3.2753550000       -1.3808420000        0.2167560000
 C       -1.9355680000       -1.6734280000        0.1968170000
 C       -2.7709120000        0.8996530000       -0.2976090000
 N       -1.4415390000        0.6045230000       -0.3286220000
 C       -0.9672730000       -0.6708200000       -0.0696860000
 C        0.4389240000       -0.9053570000       -0.0682700000
 N        1.3345480000        0.1604750000       -0.0584610000
 C       -0.4765750000        1.6012830000       -0.7440450000
 C        0.7966210000        1.5401100000        0.1032390000
 H       -0.9334280000        2.5944000000       -0.6485180000
 H       -0.2199540000        1.4437380000       -1.8064280000
 C        0.9829180000       -2.2158540000       -0.0765970000
 C        2.3361790000       -2.4323950000       -0.0788950000
 C        3.2137240000       -1.3210100000       -0.0719040000
 C        2.6777650000       -0.0644380000       -0.0592910000
 H       -4.7663090000        0.2195200000       -0.0070810000
 H        4.2968460000       -1.4427310000       -0.0803390000
 H       -1.6030010000       -2.6857130000        0.4213590000
 H        0.3022440000       -3.0649470000       -0.1138880000
 H        2.7295690000       -3.4502570000       -0.0985390000
 H       -4.0015960000       -2.1653810000        0.4367500000
 H       -3.0278410000        1.9393790000       -0.5083620000
 H        3.3106250000        0.8201470000       -0.0464820000
 C        1.7559950000        2.5952110000       -0.4396920000
 H        2.0767760000        2.3732550000       -1.4683230000
 H        2.6433930000        2.7201570000        0.1953630000
 H        1.2422870000        3.5669280000       -0.4477090000
 C        0.5014410000        1.7834720000        1.5842460000
 H       -0.2056850000        1.0466650000        1.9919190000
 H        0.0747860000        2.7872040000        1.7264680000
 H        1.4294100000        1.7234110000        2.1711060000

