%nproc=8
%mem=18000mb
#P PBE1PBE DEF2TZVPP OPT FREQ SCF(tight) INT(ultrafine)

 66-dimethyl-3c_2c_ox

 3 2
 C       -3.7139140000       -0.0673690000       -0.0581410000
 C       -3.3060210000       -1.3570500000        0.2660610000
 C       -1.9399360000       -1.6451800000        0.2603880000
 C       -2.7336850000        0.9089030000       -0.3759030000
 N       -1.4315600000        0.6229560000       -0.3643850000
 C       -0.9826640000       -0.6416860000       -0.0541330000
 C        0.4383460000       -0.9021340000       -0.0494450000
 N        1.3356860000        0.1480440000       -0.0340880000
 C       -0.4356770000        1.6422160000       -0.7587650000
 C        0.8106300000        1.5857630000        0.1202560000
 H       -0.9026060000        2.6315090000       -0.6628290000
 H       -0.1944040000        1.4813020000       -1.8241870000
 C        0.9358910000       -2.2376460000       -0.0840660000
 C        2.3045820000       -2.4976580000       -0.1192950000
 C        3.1750570000       -1.4139470000       -0.1032210000
 C        2.6434570000       -0.0939260000       -0.0518570000
 H       -4.7722370000        0.2209420000       -0.0795930000
 H        4.2645700000       -1.5409400000       -0.1246940000
 H       -1.6130060000       -2.6502930000        0.5359710000
 H        0.2392600000       -3.0780220000       -0.1228980000
 H        2.6774800000       -3.5273370000       -0.1611790000
 H       -4.0360650000       -2.1336780000        0.5214250000
 H       -3.0200760000        1.9306680000       -0.6535440000
 H        3.3114930000        0.7719820000       -0.0184120000
 C        1.8141630000        2.5969930000       -0.4201270000
 H        2.1378240000        2.3781650000       -1.4499500000
 H        2.6896980000        2.7090850000        0.2362670000
 H        1.3339340000        3.5875990000       -0.4304740000
 C        0.5211360000        1.8125250000        1.6042890000
 H       -0.2088600000        1.1062060000        2.0293420000
 H        0.1303250000        2.8327210000        1.7408430000
 H        1.4456030000        1.7442620000        2.1969780000

