%nproc=8
%mem=18000mb
#P PBE1PBE DEF2TZVPP OPT FREQ SCF(tight) INT(ultrafine)

 4-bromo-3c_2c_rd

 1 2
 C       -4.5127080000       -0.7290640000       -0.0796690000
 C       -4.3335380000        0.6657400000       -0.2601350000
 C       -3.0712840000        1.2020890000       -0.2262790000
 C       -3.4077290000       -1.5020870000        0.1338470000
 N       -2.1570450000       -0.9666950000        0.1758710000
 C       -1.9298740000        0.3869350000       -0.0101460000
 C       -0.5971620000        0.9002930000        0.0255030000
 N        0.4896210000        0.0233560000       -0.0533840000
 C       -1.0137180000       -1.8009310000        0.5030830000
 C        0.1796730000       -1.3754120000       -0.3192190000
 H       -1.2610840000       -2.8485540000        0.2876280000
 H       -0.7894860000       -1.7150720000        1.5802070000
 H       -0.0238680000       -1.5049590000       -1.3962900000
 H        1.0459170000       -1.9940340000       -0.0615030000
 C       -0.3232570000        2.2831830000        0.1386820000
 C        0.9650820000        2.7479670000        0.1928920000
 C        2.0442850000        1.8352980000        0.1375580000
 C        1.7768670000        0.4979650000        0.0118340000
 H       -5.4992760000       -1.1912230000       -0.1134090000
 H       -3.4637720000       -2.5814720000        0.2867860000
 H       -5.1947810000        1.3114370000       -0.4414360000
 H       -2.9357070000        2.2681580000       -0.4014230000
 H       -1.1536810000        2.9823290000        0.2199400000
 H        1.1630400000        3.8163310000        0.2949110000
 H        3.0789790000        2.1711160000        0.1953240000
Br        3.2013100000       -0.7080730000       -0.0798810000

