%nproc=8
%mem=18000mb
#P PBE1PBE DEF2TZVPP OPT FREQ SCF(tight) INT(ultrafine)

 4-bromo-3c_2c_ox

 3 2
 C       -4.5294870000       -0.6363910000       -0.1692760000
 C       -4.3123560000        0.7111170000       -0.4273140000
 C       -3.0090920000        1.2157450000       -0.3375980000
 C       -3.4315230000       -1.4545210000        0.1620380000
 N       -2.1906670000       -0.9611980000        0.2253220000
 C       -1.9337750000        0.3687710000       -0.0076250000
 C       -0.5609710000        0.8579150000        0.0782360000
 N        0.4874690000       -0.0205420000        0.0112750000
 C       -1.0621420000       -1.8198990000        0.6328690000
 C        0.1675310000       -1.4611210000       -0.1612610000
 H       -1.3233330000       -2.8703490000        0.4408300000
 H       -0.9111460000       -1.7009080000        1.7198140000
 H        0.0505900000       -1.6581460000       -1.2415890000
 H        1.0100870000       -2.0622110000        0.2042040000
 C       -0.3011980000        2.2493360000        0.2295950000
 C        1.0004580000        2.7313270000        0.2997870000
 C        2.0506500000        1.8253390000        0.1892740000
 C        1.7775390000        0.4354810000        0.0315630000
 H       -5.5293080000       -1.0831150000       -0.2162350000
 H       -3.5567580000       -2.5204870000        0.3845930000
 H       -5.1419490000        1.3743120000       -0.6963230000
 H       -2.8389070000        2.2707390000       -0.5622880000
 H       -1.1344650000        2.9489200000        0.3258380000
 H        1.1977580000        3.8013030000        0.4333910000
 H        3.0956870000        2.1567060000        0.2188460000
Br        3.1962950000       -0.6835190000       -0.1654000000

