%nproc=8
%mem=18000mb
#P PBE1PBE DEF2TZVPP OPT FREQ SCF(tight) INT(ultrafine)

 1-2-oxopropyl-3q_2c_ox

 3 2
 N       -2.3671570000        0.3033030000        0.4844750000
 C       -1.7008570000       -0.7724460000        0.9861240000
 C       -0.3331810000       -0.8835050000        0.8501680000
 C       -1.6868110000        1.2889320000       -0.1638880000
 C       -0.3175070000        1.2238570000       -0.3124880000
 C        0.4053410000        0.1261920000        0.1975030000
 C        1.8798450000        0.0418140000        0.0652400000
 C        2.5246570000       -1.1917570000       -0.1117930000
 C        3.9058880000       -1.2367000000       -0.2363300000
 N        4.6452460000       -0.1141730000       -0.1744760000
 C        2.6799550000        1.1962890000        0.1171380000
 C        4.0553310000        1.0857150000        0.0019970000
 H       -2.2888450000       -1.5264110000        1.5172690000
 H        0.1530240000       -1.7527560000        1.2996670000
 H       -2.2676400000        2.1318360000       -0.5487390000
 H        0.1743010000        2.0374510000       -0.8511140000
 H        1.9778990000       -2.1338300000       -0.1906330000
 H        4.4424670000       -2.1764010000       -0.3885900000
 H        4.7147240000        1.9565300000        0.0510840000
 H        2.2623790000        2.1920380000        0.2808710000
 C        6.1164370000       -0.1807670000       -0.2871270000
 H        6.4168240000       -1.2056930000       -0.5299840000
 H        6.5624770000        0.1200240000        0.6722650000
 H        6.4473180000        0.5007610000       -1.0829750000
 C       -3.8004160000        0.4157000000        0.6659850000
 C       -4.7125180000       -0.2813000000       -0.4076560000
 H       -4.1186080000        1.4725350000        0.6683420000
 H       -4.1148160000       -0.0417790000        1.6216310000
 C       -6.1979050000       -0.0469440000       -0.3212020000
 H       -6.4804050000        0.2049070000        0.7122170000
 H       -6.7359630000       -0.9273070000       -0.7061200000
 H       -6.3985360000        0.8137340000       -0.9929200000
 O       -4.2003460000       -0.9625040000       -1.2455370000

