%nproc=8
%mem=18000mb
#P PBE1PBE DEF2TZVPP OPT FREQ SCF(tight) INT(ultrafine)

 37-dimethyl-3-7-phenanthrolinium_2c_gn

 2 1
 N       -3.4154580000       -0.0166970000        0.0000000000
 C       -2.5750490000       -1.0480810000        0.0000000000
 C       -1.1829150000       -0.8611300000        0.0000000000
 C       -0.6638810000        0.4594930000        0.0000000000
 C       -2.9428870000        1.2611640000       -0.0000000000
 C       -1.5960470000        1.5203630000       -0.0000000000
 C       -0.3004790000       -1.9858560000        0.0000010000
 C        1.0508720000       -1.8136500000        0.0000000000
 C        1.6097220000       -0.4994110000       -0.0000000000
 C        0.7729690000        0.6489300000       -0.0000000000
 N        2.9756780000       -0.3287750000       -0.0000000000
 C        3.5222350000        0.8932840000       -0.0000000000
 C        1.3713780000        1.9248950000       -0.0000000000
 C        2.7465560000        2.0471690000       -0.0000000000
 C        3.8718100000       -1.4975320000       -0.0000010000
 H        3.7017520000       -2.1003530000        0.9019880000
 H        4.9082470000       -1.1448250000       -0.0000020000
 H        3.7017500000       -2.1003540000       -0.9019890000
 C       -4.8732770000       -0.2284750000        0.0000000000
 H       -5.0861010000       -1.3028120000        0.0000010000
 H       -5.3041770000        0.2324480000       -0.8992310000
 H       -5.3041760000        0.2324490000        0.8992310000
 H       -3.0151570000       -2.0480920000        0.0000010000
 H       -3.6925920000        2.0548830000       -0.0000000000
 H       -1.2878190000        2.5659060000       -0.0000010000
 H       -0.7173670000       -2.9960290000        0.0000010000
 H        1.6954550000       -2.6912530000        0.0000010000
 H        0.7608610000        2.8293090000       -0.0000000000
 H        3.2381420000        3.0215990000       -0.0000000000
 H        4.6136020000        0.9384570000       -0.0000010000

