%nproc=8
%mem=18000mb
#P PBE1PBE DEF2TZVPP OPT FREQ SCF(tight) INT(ultrafine)

 7m_n_ox

 1 2
 C        1.3322210000       -0.1703100000        3.6200760000
 C       -0.0453270000       -0.4006270000        3.7399580000
 C        1.8941870000        0.0708930000        2.3792200000
 C        1.0713630000        0.0964810000        1.2287030000
 C       -0.3227350000       -0.1039130000        1.3676660000
 C       -0.8741260000       -0.3598980000        2.6097300000
 H        1.9693620000       -0.1941190000        4.5062880000
 H        2.9724530000        0.2224120000        2.2782030000
 H       -0.4809350000       -0.6079040000        4.7199140000
 H       -1.9513570000       -0.5245390000        2.6962200000
 N        1.6512620000        0.2455890000       -0.0000000000
 C        1.0713630000        0.0964810000       -1.2287030000
 C       -0.3227350000       -0.1039130000       -1.3676660000
 S       -1.4129090000        0.2105460000        0.0000000000
 C        1.8941870000        0.0708930000       -2.3792200000
 C        1.3322210000       -0.1703100000       -3.6200760000
 C       -0.0453270000       -0.4006270000       -3.7399580000
 C       -0.8741260000       -0.3598980000       -2.6097300000
 H        2.9724530000        0.2224120000       -2.2782030000
 H        1.9693620000       -0.1941190000       -4.5062880000
 H       -1.9513570000       -0.5245390000       -2.6962200000
 H       -0.4809350000       -0.6079040000       -4.7199140000
 H        2.6583690000        0.4025160000       -0.0000000000
 O       -1.6653220000        1.6432060000        0.0000000000
 O       -2.4967640000       -0.7524040000        0.0000000000

