%nproc=8
%mem=18000mb
#P PBE1PBE DEF2TZVPP OPT FREQ SCF(tight) INT(ultrafine)

 7m_n_rd

-1 2
 C       -1.3204290000       -0.3033520000        3.5988230000
 C        0.0343270000       -0.6289550000        3.6796090000
 C       -1.8734380000        0.0933840000        2.3568090000
 C       -1.0656310000        0.2029760000        1.2254950000
 C        0.3125170000       -0.1041580000        1.3217800000
 C        0.8556330000       -0.5354180000        2.5588100000
 H       -1.9618690000       -0.3684410000        4.4814340000
 H       -2.9459020000        0.2943920000        2.2659680000
 H        0.4609890000       -0.9544850000        4.6336840000
 H        1.9180950000       -0.7828930000        2.5970790000
 N       -1.6085720000        0.5591080000        0.0000000000
 C       -1.0656310000        0.2029760000       -1.2254950000
 C        0.3125170000       -0.1041580000       -1.3217800000
 S        1.3672290000        0.3094640000       -0.0000000000
 C       -1.8734380000        0.0933840000       -2.3568090000
 C       -1.3204290000       -0.3033520000       -3.5988230000
 C        0.0343270000       -0.6289550000       -3.6796090000
 C        0.8556330000       -0.5354180000       -2.5588100000
 H       -2.9459020000        0.2943920000       -2.2659680000
 H       -1.9618690000       -0.3684410000       -4.4814340000
 H        1.9180950000       -0.7828930000       -2.5970790000
 H        0.4609890000       -0.9544850000       -4.6336840000
 H       -2.6066750000        0.7187340000        0.0000000000
 O        2.5409860000       -0.5852580000       -0.0000000000
 O        1.6755930000        1.7534100000       -0.0000000000

