%nproc=8
%mem=18000mb
#P PBE1PBE DEF2TZVPP OPT FREQ SCF(tight) INT(ultrafine)

 7m_n_gn

 0 1
 C        1.3023350000       -0.2829530000        3.5935620000
 C       -0.0608020000       -0.5811370000        3.6976100000
 C        1.8646290000        0.0797670000        2.3779120000
 C        1.0664370000        0.1743990000        1.2252890000
 C       -0.3079340000       -0.0895050000        1.3533090000
 C       -0.8651500000       -0.4804460000        2.5705280000
 H        1.9433290000       -0.3513470000        4.4757470000
 H        2.9374980000        0.2784740000        2.3052150000
 H       -0.4897810000       -0.8818700000        4.6551810000
 H       -1.9362540000       -0.6930280000        2.6085140000
 N        1.6351110000        0.4605630000       -0.0000000000
 C        1.0664370000        0.1743990000       -1.2252890000
 C       -0.3079340000       -0.0895050000       -1.3533090000
 S       -1.3762200000        0.2886700000        0.0000000000
 C        1.8646290000        0.0797670000       -2.3779120000
 C        1.3023350000       -0.2829530000       -3.5935620000
 C       -0.0608020000       -0.5811370000       -3.6976100000
 C       -0.8651500000       -0.4804460000       -2.5705280000
 H        2.9374980000        0.2784740000       -2.3052150000
 H        1.9433290000       -0.3513470000       -4.4757470000
 H       -1.9362540000       -0.6930280000       -2.6085140000
 H       -0.4897810000       -0.8818700000       -4.6551810000
 H        2.6313970000        0.6345900000       -0.0000000000
 O       -1.5935320000        1.7335540000        0.0000000000
 O       -2.5266460000       -0.6114540000        0.0000000000

