%nproc=8
%mem=18000mb
#P PBE1PBE DEF2TZVPP OPT FREQ SCF(tight) INT(ultrafine)

 i47di-12-met-3-phenyl_n_rd

-1 2
 C       -3.2535060000       -1.7919680000        0.1912220000
 C       -2.1005820000       -2.5611150000        0.1787470000
 C       -3.2491940000       -0.3586630000        0.0954150000
 H       -4.2383040000       -2.2641450000        0.2724020000
 C       -1.8972850000        0.2060060000       -0.0062980000
 C       -0.7593100000       -2.0467100000        0.0695610000
 H       -2.1654580000       -3.6526230000        0.2435850000
 C       -0.6985330000       -0.5811500000       -0.0172120000
 C       -1.5256970000        1.5412880000       -0.0813730000
 C        0.3849190000        0.3138270000       -0.0648470000
 N       -0.1570060000        1.5978970000       -0.1143110000
 O       -4.2866440000        0.3456640000        0.1039570000
 O        0.2452490000       -2.7969680000        0.0331350000
 C       -2.4012050000        2.7412490000       -0.1492990000
 H       -3.4321610000        2.3756710000       -0.0315330000
 H       -2.3262940000        3.2692370000       -1.1183980000
 H       -2.1764350000        3.4775280000        0.6427660000
 C        0.5557130000        2.8211630000       -0.3745660000
 H       -0.0270840000        3.4494980000       -1.0636750000
 H        1.5242480000        2.6010870000       -0.8400110000
 H        0.7399220000        3.4083680000        0.5422930000
 C        1.8279230000        0.0872740000       -0.0044770000
 C        2.4184670000       -1.0164570000       -0.6558020000
 C        2.6868170000        0.9436410000        0.7179870000
 C        4.0651190000        0.7407970000        0.7474530000
 C        3.7929480000       -1.2184100000       -0.6161410000
 C        4.6327160000       -0.3375660000        0.0713400000
 H        1.7634850000       -1.7391980000       -1.1425350000
 H        4.2173840000       -2.0857710000       -1.1303760000
 H        5.7137340000       -0.5015750000        0.0943820000
 H        2.2636850000        1.7635770000        1.3019940000
 H        4.6976060000        1.4242570000        1.3222870000

