%nproc=8
%mem=18000mb
#P PBE1PBE DEF2TZVPP OPT FREQ SCF(tight) INT(ultrafine)

 i47di-12-met-3-phenyl_n_gn

 0 1
 C       -3.2156230000       -1.8607290000        0.2078050000
 C       -2.0859890000       -2.5895400000        0.2313520000
 C       -3.2219420000       -0.3785680000        0.0709490000
 H       -4.2031290000       -2.3236520000        0.2899570000
 C       -1.8934680000        0.2239340000       -0.0276230000
 C       -0.7188770000       -2.0061490000        0.1007760000
 H       -2.1065520000       -3.6785500000        0.3312480000
 C       -0.6906080000       -0.5459910000       -0.0142380000
 C       -1.5387290000        1.5598990000       -0.1060610000
 C        0.3755350000        0.3461730000       -0.0655250000
 N       -0.1670440000        1.6168590000       -0.1296230000
 O       -4.2739920000        0.2407710000        0.0580350000
 O        0.2561690000       -2.7370090000        0.0815680000
 C       -2.4013580000        2.7663340000       -0.1689310000
 H       -3.4459590000        2.4483800000       -0.0652410000
 H       -2.2960760000        3.2961600000       -1.1310190000
 H       -2.1626490000        3.4851310000        0.6317490000
 C        0.5694950000        2.8499240000       -0.2914390000
 H        0.0716500000        3.4849630000       -1.0367460000
 H        1.5844730000        2.6291220000       -0.6407540000
 H        0.6362630000        3.4103240000        0.6544390000
 C        1.8249300000        0.1030550000       -0.0222500000
 C        2.4131820000       -0.8381710000       -0.8798500000
 C        2.6452630000        0.7870750000        0.8901650000
 C        4.0166380000        0.5493330000        0.9313970000
 C        3.7839760000       -1.0725170000       -0.8373260000
 C        4.5908140000       -0.3786000000        0.0640090000
 H        1.7837000000       -1.3939810000       -1.5751850000
 H        4.2257750000       -1.8085540000       -1.5131540000
 H        5.6666020000       -0.5674990000        0.0965000000
 H        2.2003610000        1.4929360000        1.5957990000
 H        4.6380130000        1.0843410000        1.6536870000

