%nproc=8
%mem=18000mb
#P PBE1PBE DEF2TZVPP OPT FREQ SCF(tight) INT(ultrafine)

 1t-och3_n_ox

 1 2
 C       -1.5060470000        3.6560140000       -0.4255560000
 C       -2.8193030000        3.5903660000        0.0661820000
 C       -0.7866460000        2.4916260000       -0.6768480000
 C       -1.3623300000        1.2362890000       -0.4377630000
 C       -2.7079720000        1.1580260000        0.0503420000
 C       -3.4140660000        2.3628480000        0.3001300000
 H       -1.0460440000        4.6272430000       -0.6202960000
 H        0.2267030000        2.5560420000       -1.0789010000
 H       -3.3744270000        4.5113990000        0.2569370000
 H       -4.4351490000        2.2763900000        0.6762320000
 C       -0.6530800000       -0.0000010000       -0.6545800000
 C       -1.3623370000       -1.2362860000       -0.4377640000
 N       -3.3461940000        0.0000070000        0.2862310000
 C       -2.7079780000       -1.1580160000        0.0503420000
 C       -0.7866600000       -2.4916270000       -0.6768480000
 C       -1.5060680000       -3.6560110000       -0.4255560000
 C       -2.8193240000       -3.5903550000        0.0661810000
 C       -3.4140800000       -2.3628330000        0.3001290000
 H        0.2266890000       -2.5560480000       -1.0789010000
 H       -1.0460700000       -4.6272420000       -0.6202960000
 H       -3.3744530000       -4.5113850000        0.2569370000
 H       -4.4351620000       -2.2763700000        0.6762320000
 N        0.5732960000       -0.0000050000       -1.1369560000
 C        1.7959520000       -0.0000030000       -0.7748900000
 C        2.1673130000       -0.0000040000        0.6665890000
 C        2.8557600000       -0.0000050000       -1.7803530000
 C        3.4721820000       -0.0000030000        1.0253620000
 C        4.5477580000        0.0000050000        0.0208740000
 C        4.1470260000       -0.0000040000       -1.4121770000
 H        2.5403660000       -0.0000080000       -2.8256440000
 H        4.9619190000       -0.0000070000       -2.1400850000
 H        3.7962070000       -0.0000070000        2.0667620000
 O        5.7178630000       -0.0000070000        0.3367640000
 O        1.1085580000       -0.0000080000        1.4662240000
 C        1.3121320000       -0.0000050000        2.8681930000
 H        1.8640960000        0.9001990000        3.1821790000
 H        1.8640890000       -0.9002110000        3.1821840000
 H        0.3167660000        0.0000000000        3.3258980000

