%nproc=8
%mem=18000mb
#P PBE1PBE DEF2TZVPP OPT FREQ SCF(tight) INT(ultrafine)

 1t-och3_n_gn

 0 1
 C       -1.0225490000        3.6352030000       -0.6085780000
 C       -2.3271210000        3.7429670000       -0.0537520000
 C       -0.4702170000        2.4023320000       -0.8392670000
 C       -1.1893320000        1.2135140000       -0.5267030000
 C       -2.5151090000        1.3135700000        0.0236030000
 C       -3.0490860000        2.6203390000        0.2498920000
 H       -0.4638020000        4.5403200000       -0.8577440000
 H        0.5256630000        2.3215470000       -1.2800080000
 H       -2.7554670000        4.7327060000        0.1238850000
 H       -4.0553140000        2.6729160000        0.6700230000
 C       -0.6589810000       -0.0813570000       -0.7264590000
 C       -1.4667000000       -1.2024150000       -0.4343380000
 N       -3.2677810000        0.2576400000        0.3419060000
 C       -2.7727690000       -0.9618710000        0.1176020000
 C       -1.0319690000       -2.5411170000       -0.6515090000
 C       -1.8409570000       -3.5986640000       -0.3274470000
 C       -3.1275470000       -3.3702640000        0.2334080000
 C       -3.5788460000       -2.0955420000        0.4469670000
 H       -0.0477120000       -2.7112220000       -1.0930600000
 H       -1.5022120000       -4.6219890000       -0.5052070000
 H       -3.7610610000       -4.2235530000        0.4888090000
 H       -4.5644170000       -1.8916340000        0.8698480000
 N        0.5685880000       -0.2576030000       -1.3262250000
 C        1.7390530000       -0.2360450000       -0.8130650000
 C        2.0502580000       -0.0578720000        0.6346300000
 C        2.8788630000       -0.4081740000       -1.7222860000
 C        3.3368620000       -0.0307490000        1.0639750000
 C        4.4698520000       -0.1825680000        0.1447190000
 C        4.1483780000       -0.3793360000       -1.2891630000
 H        2.6174380000       -0.5500830000       -2.7731610000
 H        5.0003790000       -0.4983840000       -1.9623340000
 H        3.5982750000        0.0986630000        2.1144640000
 O        5.6236780000       -0.1545050000        0.5328840000
 O        0.9700550000        0.0548420000        1.3948050000
 C        1.1172150000        0.2327700000        2.7834760000
 H        1.6721420000        1.1590570000        3.0062050000
 H        1.6412920000       -0.6239970000        3.2385390000
 H        0.1035040000        0.3043750000        3.1942240000

