%nproc=8
%mem=18000mb
#P PBE1PBE DEF2TZVPP OPT FREQ SCF(tight) INT(ultrafine)

 11-dibenzyl-3l_2c_ox

 3 2
 N        3.3777380000        1.0722030000        0.0682760000
 C        2.4653510000        1.8670110000        0.6630860000
 C        1.1320700000        1.5024280000        0.7320010000
 C        3.0047450000       -0.1017510000       -0.4724330000
 C        1.6819490000       -0.5155240000       -0.4416130000
 C        0.7088420000        0.2894000000        0.1682000000
 C       -0.7171450000       -0.1300110000        0.2218120000
 C       -1.5011190000        0.1010400000        1.3633150000
 C       -1.3263990000       -0.7808100000       -0.8623910000
 C       -2.6460860000       -1.1890640000       -0.7726020000
 C       -2.8144520000       -0.3341480000        1.4011600000
 N       -3.3652640000       -0.9755810000        0.3490830000
 H       -3.1498800000       -1.7062430000       -1.5929060000
 H       -0.7923450000       -0.9712920000       -1.7956980000
 H       -1.0952840000        0.5841280000        2.2546830000
 H       -3.4454980000       -0.1966160000        2.2827120000
 H        1.4378020000       -1.4859460000       -0.8789270000
 H        3.7954480000       -0.7036540000       -0.9263910000
 H        2.8281790000        2.8108650000        1.0775450000
 H        0.4354320000        2.1942340000        1.2101080000
 C        4.7936310000        1.5678530000       -0.0415920000
 C        5.8484300000        0.4999960000       -0.1108270000
 H        4.8236580000        2.2045670000       -0.9394690000
 H        4.9515490000        2.2174120000        0.8307140000
 C        6.5188440000        0.2422680000       -1.3048530000
 C        7.5782930000       -0.6985710000       -1.3459200000
 C        7.9676360000       -1.3813100000       -0.1896030000
 C        6.2580420000       -0.1847660000        1.0509690000
 C        7.3084020000       -1.1268010000        1.0063000000
 H        5.7828380000        0.0255640000        2.0141800000
 H        7.6095010000       -1.6380570000        1.9239300000
 H        8.7917010000       -2.0975160000       -0.2268630000
 H        6.2588930000        0.7825900000       -2.2200390000
 H        8.0980830000       -0.8769980000       -2.2909390000
 C       -4.7504750000       -1.4819430000        0.4425630000
 C       -5.8307930000       -0.5137510000        0.0338700000
 H       -4.9089700000       -1.8109280000        1.4823740000
 H       -4.8080140000       -2.3940380000       -0.1738340000
 C       -5.5935670000        0.7591050000       -0.4782140000
 C       -6.6741890000        1.5656490000       -0.8374710000
 C       -8.0084670000        1.1009650000       -0.6848440000
 C       -7.1775820000       -0.9762330000        0.1860250000
 C       -8.2498840000       -0.1741080000       -0.1713470000
 H       -4.5800280000        1.1441910000       -0.6096560000
 H       -6.4997200000        2.5655720000       -1.2428730000
 H       -8.8405060000        1.7493700000       -0.9725020000
 H       -7.3642110000       -1.9764500000        0.5892870000
 H       -9.2724140000       -0.5386580000       -0.0505000000

