%nproc=8
%mem=18000mb
#P PBE1PBE DEF2TZVPP OPT FREQ SCF(tight) INT(ultrafine)

 11-dimethoxy-3l_2c_rd

 1 2
 N        3.5129830000        0.0000020000       -0.1724280000
 C        2.8489590000       -1.1861990000       -0.1948310000
 C        1.4835590000       -1.2073500000       -0.1959460000
 C        2.8489630000        1.1862070000       -0.1948080000
 C        1.4835630000        1.2073630000       -0.1959230000
 C        0.7150480000        0.0000080000       -0.1874190000
 C       -0.7150480000        0.0000100000       -0.1874190000
 C       -1.4835630000       -1.2073450000       -0.1959480000
 C       -1.4835590000        1.2073690000       -0.1959190000
 C       -2.8489590000        1.1862170000       -0.1948030000
 C       -2.8489630000       -1.1861890000       -0.1948340000
 N       -3.5129830000        0.0000150000       -0.1724280000
 H       -3.4760820000        2.0780520000       -0.2234480000
 H       -1.0068500000        2.1863450000       -0.2149760000
 H       -1.0068570000       -2.1863220000       -0.2150310000
 H       -3.4760840000       -2.0780250000       -0.2235100000
 H        1.0068580000        2.1863410000       -0.2149840000
 H        3.4760880000        2.0780410000       -0.2234580000
 H        3.4760790000       -2.0780360000       -0.2235010000
 H        1.0068500000       -2.1863260000       -0.2150250000
 O        4.8650000000        0.0000040000       -0.2663380000
 C        5.5033430000       -0.0000350000        1.0113490000
 H        5.2427970000        0.9034620000        1.5851520000
 H        6.5771360000       -0.0000270000        0.7898820000
 H        5.2428020000       -0.9035710000        1.5850950000
 O       -4.8650000000        0.0000270000       -0.2663390000
 C       -5.5033440000       -0.0000630000        1.0113480000
 H       -5.2428190000       -0.9036300000        1.5850520000
 H       -6.5771370000       -0.0000280000        0.7898790000
 H       -5.2427830000        0.9034030000        1.5851940000

