%nproc=8
%mem=18000mb
#P PBE1PBE DEF2TZVPP OPT FREQ SCF(tight) INT(ultrafine)

 1-methyl-3h_2c_ox

 3 2
 C        3.2163050000        0.8976740000       -0.2031350000
 C        2.9267440000       -0.4322420000        0.1383940000
 C        2.1911970000        1.7656640000       -0.4820350000
 C        1.5295350000       -0.8143400000        0.1088680000
 N        0.8711070000        1.4210490000       -0.4017430000
 C        0.4827140000        0.1633710000       -0.0798020000
 C        1.2137050000       -2.1806340000        0.1471540000
 C       -0.1028030000       -2.6185690000       -0.0601600000
 C       -1.1699760000       -1.6978560000       -0.1347880000
 C       -0.9376750000       -0.2850580000       -0.0047040000
 C       -2.4793440000       -2.2236050000       -0.2710700000
 C       -3.5634110000       -1.3665350000       -0.2386810000
 C       -3.3029630000       -0.0339550000        0.0180550000
 N       -2.0521510000        0.4949560000        0.1582290000
 H        4.2470790000        1.2627160000       -0.2482200000
 H        2.3920020000        2.8019480000       -0.7673460000
 H        2.0039870000       -2.9257750000        0.2697800000
 H       -0.3126990000       -3.6918290000       -0.1272890000
 C       -2.1492990000        1.9233640000        0.6363040000
 C       -0.8928460000        2.7421620000        0.6373820000
 H       -2.5856750000        1.8651330000        1.6480830000
 H       -2.8981730000        2.3856320000       -0.0232190000
 C       -0.0881810000        2.5216080000       -0.6296250000
 H       -0.2677900000        2.5669190000        1.5273130000
 H       -1.2059760000        3.7967880000        0.7021970000
 H        0.4964320000        3.4069500000       -0.9037920000
 H       -0.7122670000        2.2678800000       -1.5035550000
 H       -4.5957910000       -1.7103030000       -0.3562040000
 H       -4.1250280000        0.6761880000        0.1518260000
 H       -2.6183870000       -3.3036440000       -0.3923960000
 C        4.0256740000       -1.3623470000        0.4534600000
 H        4.8732740000       -0.8189350000        0.9011870000
 H        4.4279380000       -1.7837930000       -0.4946590000
 H        3.7521240000       -2.2001190000        1.1071780000

